          35
 
C             -0.78464902        0.89207675       -1.82878787
C              0.42500751        0.87685688       -1.25234937
N              0.92877664       -0.09983105       -0.45036795
C              2.32884454       -0.08450883       -0.12292047
C              3.20326184       -0.71073519       -1.23305744
C              4.65626425       -0.55928212       -0.89697243
C              5.31575808        0.63424787       -1.16137055
C              6.64821874        0.80193167       -0.82456762
C              7.35639051       -0.22516631       -0.21340291
O              8.64771179       -0.17730613        0.15439328
C              9.38933319        0.99857900       -0.07816989
C              6.69063386       -1.45447221        0.06022424
O              7.45186244       -2.39705283        0.64485452
C              6.89720117       -3.65985800        0.92830641
C              5.35288427       -1.59434325       -0.28052518
C              0.19809755       -1.32693302       -0.26857679
H             -1.48985335        0.08608127       -1.74494850
H             -1.07942321        1.72690034       -2.43668805
H              1.08949166        1.72105701       -1.38256822
H              2.48267361       -0.63076775        0.81148830
H              2.64647980        0.94986044        0.03365985
H              2.98240245       -0.19994881       -2.17247974
H              2.94478782       -1.76446008       -1.34354012
H              4.78983242        1.44285985       -1.64566140
H              7.13250470        1.73870192       -1.04672482
H              8.96918713        1.84963609        0.46621977
H              9.44012388        1.23531327       -1.14493306
H             10.39062314        0.79052261        0.29364643
H              7.70400608       -4.23957551        1.37285465
H              6.07061674       -3.58418470        1.64192066
H              6.55125240       -4.15901695        0.01794403
H              4.84084363       -2.52191923       -0.07810536
H              0.12674044       -1.89896796       -1.19987800
H             -0.81360268       -1.10354194        0.07386817
H              0.69697334       -1.93637370        0.48174614
