 xtb: 6.6.1 (8d0f1dd)
          06052419583D

 25 25  0     0  0            999 V2000
    3.2834    1.0946   -0.0039 C   0  0  0  0  0  0  0  0  0  0  0  0
    2.3329    0.0142   -0.0086 N   0  0  0  0  0  0  0  0  0  0  0  0
    2.6001   -1.2828   -0.0437 C   0  0  0  0  0  0  0  0  0  0  0  0
    1.4520   -1.9909   -0.0191 N   0  0  0  0  0  0  0  0  0  0  0  0
    0.4126   -1.1098    0.0353 C   0  0  0  0  0  0  0  0  0  0  0  0
    0.9648    0.1654    0.0427 C   0  0  0  0  0  0  0  0  0  0  0  0
    0.1608    1.3523    0.0787 C   0  0  0  0  0  0  0  0  0  0  0  0
    0.5438    2.5013    0.0561 O   0  0  0  0  0  0  0  0  0  0  0  0
   -1.2314    1.0321    0.1525 N   0  0  0  0  0  0  0  0  0  0  0  0
   -2.0948    2.0603    0.2375 C   0  0  0  0  0  0  0  0  0  0  0  0
   -1.7993   -0.2708    0.1385 C   0  0  0  0  0  0  0  0  0  0  0  0
   -2.9858   -0.4389    0.1834 O   0  0  0  0  0  0  0  0  0  0  0  0
   -0.9125   -1.3464    0.0690 N   0  0  0  0  0  0  0  0  0  0  0  0
   -1.4490   -2.6952    0.0409 C   0  0  0  0  0  0  0  0  0  0  0  0
    3.7808    1.1568    0.9652 H   0  0  0  0  0  0  0  0  0  0  0  0
    4.0349    0.9400   -0.7763 H   0  0  0  0  0  0  0  0  0  0  0  0
    2.7521    2.0288   -0.1836 H   0  0  0  0  0  0  0  0  0  0  0  0
    3.5814   -1.7135   -0.0859 H   0  0  0  0  0  0  0  0  0  0  0  0
   -1.6858    3.0519    0.2509 H   0  0  0  0  0  0  0  0  0  0  0  0
   -4.0212    3.4976   -1.4639 H   0  0  0  0  0  0  0  0  0  0  0  0
   -3.1449    1.8501    0.3008 H   0  0  0  0  0  0  0  0  0  0  0  0
   -1.1273   -3.2533    0.9206 H   0  0  0  0  0  0  0  0  0  0  0  0
   -1.1366   -3.2087   -0.8684 H   0  0  0  0  0  0  0  0  0  0  0  0
   -2.5355   -2.6179    0.0499 H   0  0  0  0  0  0  0  0  0  0  0  0
    1.3848   -2.9989   -0.0374 H   0  0  0  0  0  0  0  0  0  0  0  0
  1  2  1  0  0  0  0
  2  3  4  0  0  0  0
  3  4  4  0  0  0  0
  4  5  1  0  0  0  0
  2  6  1  0  0  0  0
  5  6  4  0  0  0  0
  6  7  1  0  0  0  0
  7  8  2  0  0  0  0
  7  9  1  0  0  0  0
  9 10  4  0  0  0  0
  9 11  1  0  0  0  0
 11 12  2  0  0  0  0
  5 13  1  0  0  0  0
 11 13  1  0  0  0  0
 13 14  1  0  0  0  0
  1 15  1  0  0  0  0
  1 16  1  0  0  0  0
  1 17  1  0  0  0  0
  3 18  1  0  0  0  0
 10 19  1  0  0  0  0
 10 21  1  0  0  0  0
 14 22  1  0  0  0  0
 14 23  1  0  0  0  0
 14 24  1  0  0  0  0
  4 25  1  0  0  0  0
M  CHG  1   1   1
M  END
