          24
 
C              3.22679148        1.11709963        0.00671045
N              2.26962691        0.04369539       -0.00063692
C              2.53240462       -1.25999597        0.00026178
N              1.37488945       -1.96177254        0.00124285
C              0.34197882       -1.07270603        0.00146021
C              0.89934779        0.20008675        0.00241147
C              0.10189994        1.38838552       -0.00611266
O              0.48116978        2.53773079       -0.02210159
N             -1.30230467        1.07431623        0.00254646
C             -2.15837364        2.10516418        0.01127827
C             -1.87191836       -0.23125115       -0.00044518
O             -3.06061358       -0.39181967        0.00280018
N             -0.98566645       -1.30595713       -0.00504936
C             -1.52051779       -2.65583177       -0.00945849
H              3.71886922        1.18055242        0.97833429
H              3.98308894        0.95371661       -0.76001043
H              2.70443131        2.05371082       -0.18311229
H              3.51094162       -1.69671324       -0.00051480
H             -1.76236724        3.11124310        0.03938047
H             -3.21107651        1.89968974        0.00107243
H             -1.22149596       -3.18640898        0.89472600
H             -1.18131207       -3.19495898       -0.89395925
H             -2.60661490       -2.58164854       -0.03362730
H              1.30498771       -2.96908370        0.00145183
