 xtb: 6.6.1 (8d0f1dd)
          06052419583D

 25 26  0     0  0            999 V2000
    3.2192    1.1335    0.0179 C   0  0  0  0  0  0  0  0  0  0  0  0
    2.2693    0.0526    0.0009 N   0  0  0  0  0  0  0  0  0  0  0  0
    2.5419   -1.2381   -0.0071 C   0  0  0  0  0  0  0  0  0  0  0  0
    1.3947   -1.9496   -0.0076 N   0  0  0  0  0  0  0  0  0  0  0  0
    0.3521   -1.0691    0.0004 C   0  0  0  0  0  0  0  0  0  0  0  0
    0.9058    0.1988    0.0062 C   0  0  0  0  0  0  0  0  0  0  0  0
    0.0750    1.3966   -0.0024 C   0  0  0  0  0  0  0  0  0  0  0  0
    0.4896    2.5285   -0.0153 O   0  0  0  0  0  0  0  0  0  0  0  0
   -1.2735    1.0677    0.0011 N   0  0  0  0  0  0  0  0  0  0  0  0
   -2.2316    2.1683   -0.0027 C   0  0  0  0  0  0  0  0  0  0  0  0
   -1.8496   -0.1912    0.0039 C   0  0  0  0  0  0  0  0  0  0  0  0
   -3.0336   -0.3614    0.0069 O   0  0  0  0  0  0  0  0  0  0  0  0
   -0.9675   -1.2993    0.0013 N   0  0  0  0  0  0  0  0  0  0  0  0
   -1.5218   -2.6405   -0.0024 C   0  0  0  0  0  0  0  0  0  0  0  0
    3.7200    1.1788    0.9857 H   0  0  0  0  0  0  0  0  0  0  0  0
    3.9679    0.9911   -0.7599 H   0  0  0  0  0  0  0  0  0  0  0  0
    2.6853    2.0694   -0.1465 H   0  0  0  0  0  0  0  0  0  0  0  0
    3.5274   -1.6639   -0.0132 H   0  0  0  0  0  0  0  0  0  0  0  0
   -1.6742    3.1011    0.0060 H   0  0  0  0  0  0  0  0  0  0  0  0
   -2.8562    2.1091   -0.8928 H   0  0  0  0  0  0  0  0  0  0  0  0
   -2.8714    2.1005    0.8758 H   0  0  0  0  0  0  0  0  0  0  0  0
   -1.2059   -3.1874    0.8863 H   0  0  0  0  0  0  0  0  0  0  0  0
   -1.2222   -3.1764   -0.9033 H   0  0  0  0  0  0  0  0  0  0  0  0
   -2.6069   -2.5442    0.0079 H   0  0  0  0  0  0  0  0  0  0  0  0
    1.3267   -2.9568   -0.0158 H   0  0  0  0  0  0  0  0  0  0  0  0
  1  2  1  0  0  0  0
  2  3  4  0  0  0  0
  3  4  4  0  0  0  0
  4  5  1  0  0  0  0
  2  6  1  0  0  0  0
  5  6  4  0  0  0  0
  6  7  1  0  0  0  0
  7  8  2  0  0  0  0
  7  9  1  0  0  0  0
  9 10  1  0  0  0  0
  9 11  1  0  0  0  0
 11 12  2  0  0  0  0
  5 13  4  0  0  0  0
 11 13  1  0  0  0  0
 13 14  1  0  0  0  0
  1 15  1  0  0  0  0
  1 16  1  0  0  0  0
  1 17  1  0  0  0  0
  3 18  1  0  0  0  0
 10 19  1  0  0  0  0
 10 20  1  0  0  0  0
 10 21  1  0  0  0  0
 14 22  1  0  0  0  0
 14 23  1  0  0  0  0
 14 24  1  0  0  0  0
  4 25  1  0  0  0  0
M  CHG  1   1   1
M  END
