 xtb: 6.6.1 (8d0f1dd)
          06052420003D

 25 26  0     0  0            999 V2000
    3.1037    1.2187   -0.0533 C   0  0  0  0  0  0  0  0  0  0  0  0
    2.1768    0.1201   -0.0658 N   0  0  0  0  0  0  0  0  0  0  0  0
    2.5003   -1.1871   -0.0657 C   0  0  0  0  0  0  0  0  0  0  0  0
    1.3720   -1.9341   -0.0323 N   0  0  0  0  0  0  0  0  0  0  0  0
    0.3053   -1.0928   -0.0056 C   0  0  0  0  0  0  0  0  0  0  0  0
    0.8015    0.2163   -0.0262 C   0  0  0  0  0  0  0  0  0  0  0  0
   -0.0825    1.2890   -0.0205 C   0  0  0  0  0  0  0  0  0  0  0  0
    0.3205    2.5734    0.0015 O   0  0  0  0  0  0  0  0  0  0  0  0
   -1.4316    1.0052   -0.0216 N   0  0  0  0  0  0  0  0  0  0  0  0
   -2.3533    1.9809   -0.0634 C   0  0  0  0  0  0  0  0  0  0  0  0
   -1.9468   -0.3369    0.0601 C   0  0  0  0  0  0  0  0  0  0  0  0
   -3.1300   -0.5313    0.1146 O   0  0  0  0  0  0  0  0  0  0  0  0
   -1.0228   -1.3651    0.0578 N   0  0  0  0  0  0  0  0  0  0  0  0
   -1.5015   -2.7348    0.0953 C   0  0  0  0  0  0  0  0  0  0  0  0
    3.5115    1.3649    0.9491 H   0  0  0  0  0  0  0  0  0  0  0  0
    3.9246    1.0210   -0.7409 H   0  0  0  0  0  0  0  0  0  0  0  0
    2.5840    2.1248   -0.3549 H   0  0  0  0  0  0  0  0  0  0  0  0
    3.4953   -1.5771   -0.0928 H   0  0  0  0  0  0  0  0  0  0  0  0
   -0.4256    3.1327    0.2762 H   0  0  0  0  0  0  0  0  0  0  0  0
   -2.1073    2.9861   -0.3426 H   0  0  0  0  0  0  0  0  0  0  0  0
   -3.3726    1.7049    0.0770 H   0  0  0  0  0  0  0  0  0  0  0  0
   -1.1431   -3.2354    0.9950 H   0  0  0  0  0  0  0  0  0  0  0  0
   -1.1720   -3.2750   -0.7925 H   0  0  0  0  0  0  0  0  0  0  0  0
   -2.5897   -2.7076    0.1123 H   0  0  0  0  0  0  0  0  0  0  0  0
    1.3437   -2.9424   -0.0294 H   0  0  0  0  0  0  0  0  0  0  0  0
  1  2  1  0  0  0  0
  2  3  4  0  0  0  0
  3  4  4  0  0  0  0
  4  5  1  0  0  0  0
  2  6  1  0  0  0  0
  5  6  4  0  0  0  0
  6  7  4  0  0  0  0
  7  8  1  0  0  0  0
  7  9  1  0  0  0  0
  9 10  4  0  0  0  0
  9 11  1  0  0  0  0
 11 12  2  0  0  0  0
  5 13  1  0  0  0  0
 11 13  1  0  0  0  0
 13 14  1  0  0  0  0
  1 15  1  0  0  0  0
  1 16  1  0  0  0  0
  1 17  1  0  0  0  0
  3 18  1  0  0  0  0
  8 19  1  0  0  0  0
 10 20  1  0  0  0  0
 10 21  1  0  0  0  0
 14 22  1  0  0  0  0
 14 23  1  0  0  0  0
 14 24  1  0  0  0  0
  4 25  1  0  0  0  0
M  CHG  1   1   1
M  END
