 xtb: 6.6.1 (8d0f1dd)
          04062411153D

 72 73  0     0  0            999 V2000
   -1.9570    2.7105    2.3048 N   0  0  0  0  0  0  0  0  0  0  0  0
   -1.8716    2.1158    1.2104 C   0  0  0  0  0  0  0  0  0  0  0  0
   -3.0077    1.9236    0.2437 C   0  0  0  0  0  0  0  0  0  0  0  0
   -3.4921    0.4812    0.3249 C   0  0  0  0  0  0  0  0  0  0  0  0
   -4.3792   -0.0186   -0.6313 C   0  0  0  0  0  0  0  0  0  0  0  0
   -4.8425   -1.3237   -0.5766 C   0  0  0  0  0  0  0  0  0  0  0  0
   -5.7017   -1.8866   -1.4516 O   0  0  0  0  0  0  0  0  0  0  0  0
   -6.2882   -1.0954   -2.4577 C   0  0  0  0  0  0  0  0  0  0  0  0
   -4.4021   -2.1828    0.4666 C   0  0  0  0  0  0  0  0  0  0  0  0
   -4.8987   -3.4357    0.4380 O   0  0  0  0  0  0  0  0  0  0  0  0
   -4.5570   -4.3318    1.4700 C   0  0  0  0  0  0  0  0  0  0  0  0
   -3.5233   -1.6800    1.4122 C   0  0  0  0  0  0  0  0  0  0  0  0
   -3.0783   -0.3662    1.3417 C   0  0  0  0  0  0  0  0  0  0  0  0
   -2.4320    2.2112   -1.1666 C   0  0  0  0  0  0  0  0  0  0  0  0
   -1.4752    1.1297   -1.6987 C   0  0  0  0  0  0  0  0  0  0  0  0
   -0.1543    1.1210   -1.0292 C   0  0  0  0  0  0  0  0  0  0  0  0
    0.4943    0.0353   -0.6226 N   0  0  0  0  0  0  0  0  0  0  0  0
    1.8776    0.1194   -0.2171 C   0  0  0  0  0  0  0  0  0  0  0  0
    2.8277   -0.3345   -1.3423 C   0  0  0  0  0  0  0  0  0  0  0  0
    4.2557   -0.1380   -0.9170 C   0  0  0  0  0  0  0  0  0  0  0  0
    4.8959    1.0708   -1.1368 C   0  0  0  0  0  0  0  0  0  0  0  0
    6.2031    1.2685   -0.7201 C   0  0  0  0  0  0  0  0  0  0  0  0
    6.8965    0.2588   -0.0683 C   0  0  0  0  0  0  0  0  0  0  0  0
    8.1629    0.3380    0.3799 O   0  0  0  0  0  0  0  0  0  0  0  0
    8.8877    1.5308    0.1868 C   0  0  0  0  0  0  0  0  0  0  0  0
    6.2475   -0.9859    0.1626 C   0  0  0  0  0  0  0  0  0  0  0  0
    6.9949   -1.9117    0.7956 O   0  0  0  0  0  0  0  0  0  0  0  0
    6.4522   -3.1870    1.0408 C   0  0  0  0  0  0  0  0  0  0  0  0
    4.9394   -1.1592   -0.2614 C   0  0  0  0  0  0  0  0  0  0  0  0
   -0.1175   -1.2716   -0.6373 C   0  0  0  0  0  0  0  0  0  0  0  0
   -4.2103    2.8769    0.5173 C   0  0  0  0  0  0  0  0  0  0  0  0
   -4.8931    2.5609    1.8459 C   0  0  0  0  0  0  0  0  0  0  0  0
   -3.8112    4.3476    0.4885 C   0  0  0  0  0  0  0  0  0  0  0  0
   -4.7240    0.6245   -1.4247 H   0  0  0  0  0  0  0  0  0  0  0  0
   -6.8358   -0.2486   -2.0334 H   0  0  0  0  0  0  0  0  0  0  0  0
   -6.9856   -1.7523   -2.9742 H   0  0  0  0  0  0  0  0  0  0  0  0
   -5.5422   -0.7310   -3.1714 H   0  0  0  0  0  0  0  0  0  0  0  0
   -4.8663   -3.9538    2.4489 H   0  0  0  0  0  0  0  0  0  0  0  0
   -5.0984   -5.2500    1.2510 H   0  0  0  0  0  0  0  0  0  0  0  0
   -3.4822   -4.5397    1.4813 H   0  0  0  0  0  0  0  0  0  0  0  0
   -3.1835   -2.3014    2.2248 H   0  0  0  0  0  0  0  0  0  0  0  0
   -2.4190   -0.0056    2.1154 H   0  0  0  0  0  0  0  0  0  0  0  0
   -3.2581    2.3065   -1.8702 H   0  0  0  0  0  0  0  0  0  0  0  0
   -1.9084    3.1677   -1.1435 H   0  0  0  0  0  0  0  0  0  0  0  0
   -1.9593    0.1561   -1.6480 H   0  0  0  0  0  0  0  0  0  0  0  0
   -1.2984    1.3623   -2.7570 H   0  0  0  0  0  0  0  0  0  0  0  0
   -0.9295    1.6820    0.8153 H   0  0  0  0  0  0  0  0  0  0  0  0
    0.4065    2.0446   -1.0258 H   0  0  0  0  0  0  0  0  0  0  0  0
    2.0329   -0.5053    0.6663 H   0  0  0  0  0  0  0  0  0  0  0  0
    2.1146    1.1516    0.0492 H   0  0  0  0  0  0  0  0  0  0  0  0
    2.6210    0.2593   -2.2345 H   0  0  0  0  0  0  0  0  0  0  0  0
    2.6439   -1.3839   -1.5750 H   0  0  0  0  0  0  0  0  0  0  0  0
    4.3815    1.8695   -1.6494 H   0  0  0  0  0  0  0  0  0  0  0  0
    6.6773    2.2166   -0.9136 H   0  0  0  0  0  0  0  0  0  0  0  0
    8.4104    2.3758    0.6923 H   0  0  0  0  0  0  0  0  0  0  0  0
    9.0063    1.7598   -0.8765 H   0  0  0  0  0  0  0  0  0  0  0  0
    9.8661    1.3522    0.6286 H   0  0  0  0  0  0  0  0  0  0  0  0
    7.2404   -3.7488    1.5382 H   0  0  0  0  0  0  0  0  0  0  0  0
    5.5784   -3.1323    1.6980 H   0  0  0  0  0  0  0  0  0  0  0  0
    6.1798   -3.6931    0.1094 H   0  0  0  0  0  0  0  0  0  0  0  0
    4.4408   -2.1016   -0.0971 H   0  0  0  0  0  0  0  0  0  0  0  0
   -0.2787   -1.6221   -1.6591 H   0  0  0  0  0  0  0  0  0  0  0  0
   -1.0791   -1.2480   -0.1182 H   0  0  0  0  0  0  0  0  0  0  0  0
    0.5338   -1.9773   -0.1283 H   0  0  0  0  0  0  0  0  0  0  0  0
   -4.9297    2.7114   -0.2886 H   0  0  0  0  0  0  0  0  0  0  0  0
   -4.2157    2.7551    2.6708 H   0  0  0  0  0  0  0  0  0  0  0  0
   -5.2111    1.5222    1.8876 H   0  0  0  0  0  0  0  0  0  0  0  0
   -5.7700    3.1931    1.9606 H   0  0  0  0  0  0  0  0  0  0  0  0
   -3.4528    4.6521   -0.4911 H   0  0  0  0  0  0  0  0  0  0  0  0
   -4.6769    4.9590    0.7276 H   0  0  0  0  0  0  0  0  0  0  0  0
   -3.0465    4.5537    1.2200 H   0  0  0  0  0  0  0  0  0  0  0  0
   -1.1184    2.7928    2.8708 H   0  0  0  0  0  0  0  0  0  0  0  0
  1  2  2  0  0  0  0
  2  3  1  0  0  0  0
  3  4  1  0  0  0  0
  4  5  4  0  0  0  0
  5  6  4  0  0  0  0
  6  7  1  0  0  0  0
  7  8  1  0  0  0  0
  6  9  4  0  0  0  0
  9 10  1  0  0  0  0
 10 11  1  0  0  0  0
  9 12  4  0  0  0  0
  4 13  4  0  0  0  0
 12 13  4  0  0  0  0
  3 14  1  0  0  0  0
 14 15  1  0  0  0  0
 15 16  1  0  0  0  0
 16 17  4  0  0  0  0
 17 18  1  0  0  0  0
 18 19  1  0  0  0  0
 19 20  1  0  0  0  0
 20 21  4  0  0  0  0
 21 22  4  0  0  0  0
 22 23  4  0  0  0  0
 23 24  1  0  0  0  0
 24 25  1  0  0  0  0
 23 26  4  0  0  0  0
 26 27  1  0  0  0  0
 27 28  1  0  0  0  0
 20 29  4  0  0  0  0
 26 29  4  0  0  0  0
 17 30  1  0  0  0  0
  3 31  1  0  0  0  0
 31 32  1  0  0  0  0
 31 33  1  0  0  0  0
  5 34  1  0  0  0  0
  8 35  1  0  0  0  0
  8 36  1  0  0  0  0
  8 37  1  0  0  0  0
 11 38  1  0  0  0  0
 11 39  1  0  0  0  0
 11 40  1  0  0  0  0
 12 41  1  0  0  0  0
 13 42  1  0  0  0  0
 14 43  1  0  0  0  0
 14 44  1  0  0  0  0
 15 45  1  0  0  0  0
 15 46  1  0  0  0  0
  2 47  1  0  0  0  0
 16 48  1  0  0  0  0
 18 49  1  0  0  0  0
 18 50  1  0  0  0  0
 19 51  1  0  0  0  0
 19 52  1  0  0  0  0
 21 53  1  0  0  0  0
 22 54  1  0  0  0  0
 25 55  1  0  0  0  0
 25 56  1  0  0  0  0
 25 57  1  0  0  0  0
 28 58  1  0  0  0  0
 28 59  1  0  0  0  0
 28 60  1  0  0  0  0
 29 61  1  0  0  0  0
 30 62  1  0  0  0  0
 30 63  1  0  0  0  0
 30 64  1  0  0  0  0
 31 65  1  0  0  0  0
 32 66  1  0  0  0  0
 32 67  1  0  0  0  0
 32 68  1  0  0  0  0
 33 69  1  0  0  0  0
 33 70  1  0  0  0  0
 33 71  1  0  0  0  0
  1 72  1  0  0  0  0
M  CHG  1   1   1
M  END
