 xtb: 6.6.1 (8d0f1dd)
          06052419583D

 25 26  0     0  0            999 V2000
    2.8126    0.8228   -0.0585 C   0  0  0  0  0  0  0  0  0  0  0  0
    1.9035   -0.3024    0.0422 N   0  0  0  0  0  0  0  0  0  0  0  0
    2.5194   -1.5294    0.0325 C   0  0  0  0  0  0  0  0  0  0  0  0
    1.8943   -2.6286    0.0658 N   0  0  0  0  0  0  0  0  0  0  0  0
   -0.2635   -1.3356    0.5375 C   0  0  0  0  0  0  0  0  0  0  0  0
    0.5481   -0.1753    0.1484 C   0  0  0  0  0  0  0  0  0  0  0  0
   -0.1312    1.0956   -0.0091 C   0  0  0  0  0  0  0  0  0  0  0  0
    0.4254    2.1600   -0.2623 O   0  0  0  0  0  0  0  0  0  0  0  0
   -1.5227    1.1081    0.1289 N   0  0  0  0  0  0  0  0  0  0  0  0
   -2.1971    2.3799   -0.0164 C   0  0  0  0  0  0  0  0  0  0  0  0
   -2.3331   -0.0250    0.1478 C   0  0  0  0  0  0  0  0  0  0  0  0
   -3.5127    0.0313   -0.0663 O   0  0  0  0  0  0  0  0  0  0  0  0
   -1.6825   -1.1956    0.4843 N   0  0  0  0  0  0  0  0  0  0  0  0
   -1.1040   -2.1286   -0.4276 C   0  0  0  0  0  0  0  0  0  0  0  0
    3.3711    0.9300    0.8748 H   0  0  0  0  0  0  0  0  0  0  0  0
    3.5160    0.6643   -0.8763 H   0  0  0  0  0  0  0  0  0  0  0  0
    2.2623    1.7461   -0.2417 H   0  0  0  0  0  0  0  0  0  0  0  0
    3.6091   -1.4480   -0.0224 H   0  0  0  0  0  0  0  0  0  0  0  0
   -1.5145    3.1778    0.2763 H   0  0  0  0  0  0  0  0  0  0  0  0
   -2.5029    2.5411   -1.0548 H   0  0  0  0  0  0  0  0  0  0  0  0
   -3.0917    2.3788    0.6066 H   0  0  0  0  0  0  0  0  0  0  0  0
    0.1091   -1.9077    1.3769 H   0  0  0  0  0  0  0  0  0  0  0  0
   -1.0861   -1.8794   -1.4826 H   0  0  0  0  0  0  0  0  0  0  0  0
   -1.2917   -3.1726   -0.2085 H   0  0  0  0  0  0  0  0  0  0  0  0
    2.4231   -3.4893    0.0355 H   0  0  0  0  0  0  0  0  0  0  0  0
  1  2  1  0  0  0  0
  2  3  1  0  0  0  0
  3  4  2  0  0  0  0
  2  6  4  0  0  0  0
  5  6  1  0  0  0  0
  6  7  1  0  0  0  0
  7  8  2  0  0  0  0
  7  9  1  0  0  0  0
  9 10  1  0  0  0  0
  9 11  1  0  0  0  0
 11 12  2  0  0  0  0
  5 13  1  0  0  0  0
 11 13  1  0  0  0  0
  5 14  1  0  0  0  0
 13 14  1  0  0  0  0
  1 15  1  0  0  0  0
  1 16  1  0  0  0  0
  1 17  1  0  0  0  0
  3 18  1  0  0  0  0
 10 19  1  0  0  0  0
 10 20  1  0  0  0  0
 10 21  1  0  0  0  0
  5 22  1  0  0  0  0
 14 23  1  0  0  0  0
 14 24  1  0  0  0  0
  4 25  1  0  0  0  0
M  CHG  1   1   1
M  END
