 xtb: 6.6.1 (8d0f1dd)
          06052419583D

 25 25  0     0  0            999 V2000
    3.1907    1.1412    0.0185 C   0  0  0  0  0  0  0  0  0  0  0  0
    2.1935    0.1098    0.0011 N   0  0  0  0  0  0  0  0  0  0  0  0
    2.3969   -1.2270   -0.0035 C   0  0  0  0  0  0  0  0  0  0  0  0
    1.2745   -1.9162   -0.0032 N   0  0  0  0  0  0  0  0  0  0  0  0
    0.2830   -1.0042    0.0030 C   0  0  0  0  0  0  0  0  0  0  0  0
    0.8381    0.2855    0.0067 C   0  0  0  0  0  0  0  0  0  0  0  0
    0.0183    1.4662   -0.0022 C   0  0  0  0  0  0  0  0  0  0  0  0
    0.4177    2.6124   -0.0143 O   0  0  0  0  0  0  0  0  0  0  0  0
   -1.3426    1.1484    0.0015 N   0  0  0  0  0  0  0  0  0  0  0  0
   -2.2887    2.2483   -0.0027 C   0  0  0  0  0  0  0  0  0  0  0  0
   -1.9117   -0.1210    0.0036 C   0  0  0  0  0  0  0  0  0  0  0  0
   -3.1091   -0.2630    0.0053 O   0  0  0  0  0  0  0  0  0  0  0  0
   -1.0496   -1.2162    0.0026 N   0  0  0  0  0  0  0  0  0  0  0  0
   -1.5985   -2.5513   -0.0004 C   0  0  0  0  0  0  0  0  0  0  0  0
    3.7021    1.1606    0.9843 H   0  0  0  0  0  0  0  0  0  0  0  0
    3.9327    0.9627   -0.7613 H   0  0  0  0  0  0  0  0  0  0  0  0
    2.7106    2.1066   -0.1449 H   0  0  0  0  0  0  0  0  0  0  0  0
    3.3682   -1.6825   -0.0083 H   0  0  0  0  0  0  0  0  0  0  0  0
   -1.7290    3.1829    0.0042 H   0  0  0  0  0  0  0  0  0  0  0  0
   -2.9224    2.1949   -0.8905 H   0  0  0  0  0  0  0  0  0  0  0  0
   -2.9363    2.1887    0.8745 H   0  0  0  0  0  0  0  0  0  0  0  0
   -1.2518   -3.0983    0.8782 H   0  0  0  0  0  0  0  0  0  0  0  0
   -1.2695   -3.0878   -0.8924 H   0  0  0  0  0  0  0  0  0  0  0  0
   -2.6847   -2.4773    0.0102 H   0  0  0  0  0  0  0  0  0  0  0  0
    2.9278   -4.3453   -0.0386 H   0  0  0  0  0  0  0  0  0  0  0  0
  1  2  1  0  0  0  0
  2  3  4  0  0  0  0
  3  4  4  0  0  0  0
  4  5  4  0  0  0  0
  2  6  1  0  0  0  0
  5  6  4  0  0  0  0
  6  7  1  0  0  0  0
  7  8  2  0  0  0  0
  7  9  1  0  0  0  0
  9 10  1  0  0  0  0
  9 11  1  0  0  0  0
 11 12  2  0  0  0  0
  5 13  1  0  0  0  0
 11 13  1  0  0  0  0
 13 14  1  0  0  0  0
  1 15  1  0  0  0  0
  1 16  1  0  0  0  0
  1 17  1  0  0  0  0
  3 18  1  0  0  0  0
 10 19  1  0  0  0  0
 10 20  1  0  0  0  0
 10 21  1  0  0  0  0
 14 22  1  0  0  0  0
 14 23  1  0  0  0  0
 14 24  1  0  0  0  0
M  CHG  1   1   1
M  END
