 xtb: 6.6.1 (8d0f1dd)
          04062411123D

 72 73  0     0  0            999 V2000
   -2.2822    2.6507    2.4170 N   0  0  0  0  0  0  0  0  0  0  0  0
   -2.8408    1.8157    1.6642 C   0  0  0  0  0  0  0  0  0  0  0  0
   -3.3458    1.9789    0.2259 C   0  0  0  0  0  0  0  0  0  0  0  0
   -3.7594    0.5043    0.3699 C   0  0  0  0  0  0  0  0  0  0  0  0
   -4.3872   -0.2484   -0.6371 C   0  0  0  0  0  0  0  0  0  0  0  0
   -4.8243   -1.5443   -0.6964 C   0  0  0  0  0  0  0  0  0  0  0  0
   -5.3992   -2.0616   -1.8031 O   0  0  0  0  0  0  0  0  0  0  0  0
   -5.6161   -1.2677   -2.9495 C   0  0  0  0  0  0  0  0  0  0  0  0
   -4.7695   -2.5822    0.3579 C   0  0  0  0  0  0  0  0  0  0  0  0
   -4.2323   -2.2297    1.5528 O   0  0  0  0  0  0  0  0  0  0  0  0
   -4.2980   -3.2651    2.5144 C   0  0  0  0  0  0  0  0  0  0  0  0
   -5.2399   -3.7941    0.1111 C   0  0  0  0  0  0  0  0  0  0  0  0
   -3.2887    0.4322    1.6569 C   0  0  0  0  0  0  0  0  0  0  0  0
   -2.2689    2.2805   -0.8236 C   0  0  0  0  0  0  0  0  0  0  0  0
   -1.2770    1.1519   -1.0999 C   0  0  0  0  0  0  0  0  0  0  0  0
   -0.2679    0.9459    0.0354 C   0  0  0  0  0  0  0  0  0  0  0  0
    0.6903   -0.0773   -0.2978 N   0  0  0  0  0  0  0  0  0  0  0  0
    2.0862    0.1429   -0.0296 C   0  0  0  0  0  0  0  0  0  0  0  0
    2.9480   -0.1346   -1.2812 C   0  0  0  0  0  0  0  0  0  0  0  0
    4.4020    0.0169   -0.9520 C   0  0  0  0  0  0  0  0  0  0  0  0
    5.0639    1.2198   -1.1624 C   0  0  0  0  0  0  0  0  0  0  0  0
    6.3986    1.3671   -0.8234 C   0  0  0  0  0  0  0  0  0  0  0  0
    7.1054    0.3132   -0.2567 C   0  0  0  0  0  0  0  0  0  0  0  0
    8.3958    0.3409    0.1124 O   0  0  0  0  0  0  0  0  0  0  0  0
    9.1475    1.5176   -0.0789 C   0  0  0  0  0  0  0  0  0  0  0  0
    6.4351   -0.9251   -0.0323 C   0  0  0  0  0  0  0  0  0  0  0  0
    7.1903   -1.8920    0.5174 O   0  0  0  0  0  0  0  0  0  0  0  0
    6.6235   -3.1567    0.7679 C   0  0  0  0  0  0  0  0  0  0  0  0
    5.0985   -1.0462   -0.3827 C   0  0  0  0  0  0  0  0  0  0  0  0
    0.2372   -1.4297   -0.1189 C   0  0  0  0  0  0  0  0  0  0  0  0
   -4.5271    2.9619    0.1008 C   0  0  0  0  0  0  0  0  0  0  0  0
   -5.6309    2.6493    1.1091 C   0  0  0  0  0  0  0  0  0  0  0  0
   -4.0555    4.4029    0.2818 C   0  0  0  0  0  0  0  0  0  0  0  0
   -4.5498    0.3357   -1.5352 H   0  0  0  0  0  0  0  0  0  0  0  0
   -6.2714   -0.4196   -2.7326 H   0  0  0  0  0  0  0  0  0  0  0  0
   -6.1073   -1.9271   -3.6626 H   0  0  0  0  0  0  0  0  0  0  0  0
   -4.6744   -0.9119   -3.3779 H   0  0  0  0  0  0  0  0  0  0  0  0
   -3.8756   -2.8761    3.4374 H   0  0  0  0  0  0  0  0  0  0  0  0
   -5.3355   -3.5712    2.6778 H   0  0  0  0  0  0  0  0  0  0  0  0
   -3.7291   -4.1378    2.1782 H   0  0  0  0  0  0  0  0  0  0  0  0
   -5.7020   -4.3034   -0.6979 H   0  0  0  0  0  0  0  0  0  0  0  0
   -3.2672   -0.3382    2.4021 H   0  0  0  0  0  0  0  0  0  0  0  0
   -2.7712    2.5238   -1.7631 H   0  0  0  0  0  0  0  0  0  0  0  0
   -1.7206    3.1651   -0.4979 H   0  0  0  0  0  0  0  0  0  0  0  0
   -1.8169    0.2227   -1.2878 H   0  0  0  0  0  0  0  0  0  0  0  0
   -0.7174    1.3967   -2.0049 H   0  0  0  0  0  0  0  0  0  0  0  0
   -0.8055    0.6795    0.9555 H   0  0  0  0  0  0  0  0  0  0  0  0
    0.2548    1.8877    0.2112 H   0  0  0  0  0  0  0  0  0  0  0  0
    2.4326   -0.5078    0.7851 H   0  0  0  0  0  0  0  0  0  0  0  0
    2.2453    1.1786    0.2755 H   0  0  0  0  0  0  0  0  0  0  0  0
    2.6597    0.5655   -2.0652 H   0  0  0  0  0  0  0  0  0  0  0  0
    2.7485   -1.1470   -1.6336 H   0  0  0  0  0  0  0  0  0  0  0  0
    4.5372    2.0519   -1.6036 H   0  0  0  0  0  0  0  0  0  0  0  0
    6.8862    2.3109   -1.0055 H   0  0  0  0  0  0  0  0  0  0  0  0
    8.7321    2.3544    0.4905 H   0  0  0  0  0  0  0  0  0  0  0  0
    9.2044    1.7878   -1.1374 H   0  0  0  0  0  0  0  0  0  0  0  0
   10.1456    1.2895    0.2902 H   0  0  0  0  0  0  0  0  0  0  0  0
    7.4230   -3.7548    1.2008 H   0  0  0  0  0  0  0  0  0  0  0  0
    5.7950   -3.0901    1.4798 H   0  0  0  0  0  0  0  0  0  0  0  0
    6.2763   -3.6298   -0.1556 H   0  0  0  0  0  0  0  0  0  0  0  0
    4.5835   -1.9806   -0.2236 H   0  0  0  0  0  0  0  0  0  0  0  0
   -0.7766   -1.5344   -0.4983 H   0  0  0  0  0  0  0  0  0  0  0  0
    0.2402   -1.7255    0.9399 H   0  0  0  0  0  0  0  0  0  0  0  0
    0.8838   -2.1117   -0.6682 H   0  0  0  0  0  0  0  0  0  0  0  0
   -4.9435    2.8473   -0.9083 H   0  0  0  0  0  0  0  0  0  0  0  0
   -5.2703    2.7971    2.1244 H   0  0  0  0  0  0  0  0  0  0  0  0
   -5.9814    1.6239    1.0114 H   0  0  0  0  0  0  0  0  0  0  0  0
   -6.4751    3.3149    0.9482 H   0  0  0  0  0  0  0  0  0  0  0  0
   -3.4785    4.4896    1.1995 H   0  0  0  0  0  0  0  0  0  0  0  0
   -3.4403    4.7297   -0.5518 H   0  0  0  0  0  0  0  0  0  0  0  0
   -4.9137    5.0671    0.3466 H   0  0  0  0  0  0  0  0  0  0  0  0
   -2.0296    2.3734    3.3588 H   0  0  0  0  0  0  0  0  0  0  0  0
  1  2  2  0  0  0  0
  2  3  1  0  0  0  0
  3  4  1  0  0  0  0
  4  5  4  0  0  0  0
  5  6  4  0  0  0  0
  6  7  1  0  0  0  0
  7  8  1  0  0  0  0
  6  9  1  0  0  0  0
  9 10  1  0  0  0  0
 10 11  1  0  0  0  0
  9 12  2  0  0  0  0
  2 13  1  0  0  0  0
  4 13  2  0  0  0  0
  3 14  1  0  0  0  0
 14 15  1  0  0  0  0
 15 16  1  0  0  0  0
 16 17  1  0  0  0  0
 17 18  1  0  0  0  0
 18 19  1  0  0  0  0
 19 20  1  0  0  0  0
 20 21  4  0  0  0  0
 21 22  4  0  0  0  0
 22 23  4  0  0  0  0
 23 24  1  0  0  0  0
 24 25  1  0  0  0  0
 23 26  4  0  0  0  0
 26 27  1  0  0  0  0
 27 28  1  0  0  0  0
 20 29  4  0  0  0  0
 26 29  4  0  0  0  0
 17 30  1  0  0  0  0
  3 31  1  0  0  0  0
 31 32  1  0  0  0  0
 31 33  1  0  0  0  0
  5 34  1  0  0  0  0
  8 35  1  0  0  0  0
  8 36  1  0  0  0  0
  8 37  1  0  0  0  0
 11 38  1  0  0  0  0
 11 39  1  0  0  0  0
 11 40  1  0  0  0  0
 12 41  1  0  0  0  0
 13 42  1  0  0  0  0
 14 43  1  0  0  0  0
 14 44  1  0  0  0  0
 15 45  1  0  0  0  0
 15 46  1  0  0  0  0
 16 47  1  0  0  0  0
 16 48  1  0  0  0  0
 18 49  1  0  0  0  0
 18 50  1  0  0  0  0
 19 51  1  0  0  0  0
 19 52  1  0  0  0  0
 21 53  1  0  0  0  0
 22 54  1  0  0  0  0
 25 55  1  0  0  0  0
 25 56  1  0  0  0  0
 25 57  1  0  0  0  0
 28 58  1  0  0  0  0
 28 59  1  0  0  0  0
 28 60  1  0  0  0  0
 29 61  1  0  0  0  0
 30 62  1  0  0  0  0
 30 63  1  0  0  0  0
 30 64  1  0  0  0  0
 31 65  1  0  0  0  0
 32 66  1  0  0  0  0
 32 67  1  0  0  0  0
 32 68  1  0  0  0  0
 33 69  1  0  0  0  0
 33 70  1  0  0  0  0
 33 71  1  0  0  0  0
  1 72  1  0  0  0  0
M  CHG  1   1   1
M  END
