 xtb: 6.6.1 (8d0f1dd)
          04062411153D

 72 73  0     0  0            999 V2000
   -2.3769    2.0938    2.3784 N   0  0  0  0  0  0  0  0  0  0  0  0
   -2.6398    2.5911    1.3017 C   0  0  0  0  0  0  0  0  0  0  0  0
   -3.0736    2.9159    0.1147 C   0  0  0  0  0  0  0  0  0  0  0  0
   -3.5821   -0.9159    1.8233 C   0  0  0  0  0  0  0  0  0  0  0  0
   -4.1718   -0.5560    0.5369 C   0  0  0  0  0  0  0  0  0  0  0  0
   -4.3816   -1.6877   -0.2132 C   0  0  0  0  0  0  0  0  0  0  0  0
   -4.8876   -1.8246   -1.4551 O   0  0  0  0  0  0  0  0  0  0  0  0
   -5.4521   -0.6735   -2.0407 C   0  0  0  0  0  0  0  0  0  0  0  0
   -3.7650   -2.8086    0.4591 C   0  0  0  0  0  0  0  0  0  0  0  0
   -3.6680   -4.0158   -0.0875 O   0  0  0  0  0  0  0  0  0  0  0  0
   -2.9762   -4.9780    0.6808 C   0  0  0  0  0  0  0  0  0  0  0  0
   -3.3836   -2.3965    1.7397 C   0  0  0  0  0  0  0  0  0  0  0  0
   -2.2028   -1.6001    2.0470 C   0  0  0  0  0  0  0  0  0  0  0  0
   -2.2787    2.6722   -1.1478 C   0  0  0  0  0  0  0  0  0  0  0  0
   -1.7011    1.2532   -1.2441 C   0  0  0  0  0  0  0  0  0  0  0  0
   -0.4086    1.1241   -0.4468 C   0  0  0  0  0  0  0  0  0  0  0  0
    0.2310   -0.1729   -0.5088 N   0  0  0  0  0  0  0  0  0  0  0  0
    1.6246   -0.2103   -0.1295 C   0  0  0  0  0  0  0  0  0  0  0  0
    2.5477   -0.1433   -1.3622 C   0  0  0  0  0  0  0  0  0  0  0  0
    3.9874   -0.0670   -0.9375 C   0  0  0  0  0  0  0  0  0  0  0  0
    4.6951    1.1192   -1.0291 C   0  0  0  0  0  0  0  0  0  0  0  0
    6.0203    1.1895   -0.6258 C   0  0  0  0  0  0  0  0  0  0  0  0
    6.6612    0.0738   -0.1084 C   0  0  0  0  0  0  0  0  0  0  0  0
    7.9387    0.0258    0.3130 O   0  0  0  0  0  0  0  0  0  0  0  0
    8.7381    1.1820    0.2152 C   0  0  0  0  0  0  0  0  0  0  0  0
    5.9391   -1.1471    0.0008 C   0  0  0  0  0  0  0  0  0  0  0  0
    6.6348   -2.1785    0.5211 O   0  0  0  0  0  0  0  0  0  0  0  0
    6.0070   -3.4294    0.6674 C   0  0  0  0  0  0  0  0  0  0  0  0
    4.6199   -1.1956   -0.4181 C   0  0  0  0  0  0  0  0  0  0  0  0
   -0.3819   -1.2856   -0.8764 C   0  0  0  0  0  0  0  0  0  0  0  0
   -4.3898    3.6611   -0.0228 C   0  0  0  0  0  0  0  0  0  0  0  0
   -5.2693    3.5223    1.2167 C   0  0  0  0  0  0  0  0  0  0  0  0
   -4.1149    5.1391   -0.3157 C   0  0  0  0  0  0  0  0  0  0  0  0
   -4.5694    0.4214    0.3354 H   0  0  0  0  0  0  0  0  0  0  0  0
   -6.2756   -0.2859   -1.4344 H   0  0  0  0  0  0  0  0  0  0  0  0
   -5.8303   -0.9846   -3.0122 H   0  0  0  0  0  0  0  0  0  0  0  0
   -4.7012    0.1128   -2.1730 H   0  0  0  0  0  0  0  0  0  0  0  0
   -3.3167   -4.9474    1.7206 H   0  0  0  0  0  0  0  0  0  0  0  0
   -3.1924   -5.9475    0.2377 H   0  0  0  0  0  0  0  0  0  0  0  0
   -1.8983   -4.7933    0.6594 H   0  0  0  0  0  0  0  0  0  0  0  0
   -3.9367   -0.3956    2.6991 H   0  0  0  0  0  0  0  0  0  0  0  0
   -1.8636   -1.5181    3.0686 H   0  0  0  0  0  0  0  0  0  0  0  0
   -2.9495    2.8337   -1.9930 H   0  0  0  0  0  0  0  0  0  0  0  0
   -1.4688    3.4034   -1.2337 H   0  0  0  0  0  0  0  0  0  0  0  0
   -2.4461    0.5529   -0.8612 H   0  0  0  0  0  0  0  0  0  0  0  0
   -1.4979    1.0195   -2.2916 H   0  0  0  0  0  0  0  0  0  0  0  0
   -0.6166    1.3498    0.6067 H   0  0  0  0  0  0  0  0  0  0  0  0
    0.3125    1.8633   -0.8112 H   0  0  0  0  0  0  0  0  0  0  0  0
    1.8278   -1.1321    0.4202 H   0  0  0  0  0  0  0  0  0  0  0  0
    1.8373    0.6349    0.5280 H   0  0  0  0  0  0  0  0  0  0  0  0
    2.2935    0.7354   -1.9566 H   0  0  0  0  0  0  0  0  0  0  0  0
    2.3803   -1.0301   -1.9766 H   0  0  0  0  0  0  0  0  0  0  0  0
    4.2223    2.0023   -1.4310 H   0  0  0  0  0  0  0  0  0  0  0  0
    6.5477    2.1243   -0.7219 H   0  0  0  0  0  0  0  0  0  0  0  0
    8.3355    2.0002    0.8200 H   0  0  0  0  0  0  0  0  0  0  0  0
    8.8406    1.5108   -0.8233 H   0  0  0  0  0  0  0  0  0  0  0  0
    9.7144    0.8951    0.6009 H   0  0  0  0  0  0  0  0  0  0  0  0
    6.7594   -4.0846    1.1019 H   0  0  0  0  0  0  0  0  0  0  0  0
    5.1469   -3.3700    1.3424 H   0  0  0  0  0  0  0  0  0  0  0  0
    5.6889   -3.8351   -0.2980 H   0  0  0  0  0  0  0  0  0  0  0  0
    4.0709   -2.1223   -0.3580 H   0  0  0  0  0  0  0  0  0  0  0  0
   -1.3911   -1.2760   -1.2326 H   0  0  0  0  0  0  0  0  0  0  0  0
   -1.4030   -1.5539    1.3111 H   0  0  0  0  0  0  0  0  0  0  0  0
    0.1677   -2.2075   -0.8656 H   0  0  0  0  0  0  0  0  0  0  0  0
   -4.9222    3.2320   -0.8811 H   0  0  0  0  0  0  0  0  0  0  0  0
   -4.7976    3.9903    2.0777 H   0  0  0  0  0  0  0  0  0  0  0  0
   -5.4521    2.4766    1.4542 H   0  0  0  0  0  0  0  0  0  0  0  0
   -6.2262    4.0091    1.0469 H   0  0  0  0  0  0  0  0  0  0  0  0
   -3.5847    5.5959    0.5170 H   0  0  0  0  0  0  0  0  0  0  0  0
   -3.5163    5.2579   -1.2153 H   0  0  0  0  0  0  0  0  0  0  0  0
   -5.0535    5.6689   -0.4562 H   0  0  0  0  0  0  0  0  0  0  0  0
   -1.8691    2.5814    3.1038 H   0  0  0  0  0  0  0  0  0  0  0  0
  1  2  2  0  0  0  0
  2  3  2  0  0  0  0
  4  5  1  0  0  0  0
  5  6  2  0  0  0  0
  6  7  1  0  0  0  0
  7  8  1  0  0  0  0
  6  9  1  0  0  0  0
  9 10  1  0  0  0  0
 10 11  1  0  0  0  0
  4 12  1  0  0  0  0
  9 12  4  0  0  0  0
  4 13  1  0  0  0  0
 12 13  1  0  0  0  0
  3 14  1  0  0  0  0
 14 15  1  0  0  0  0
 15 16  1  0  0  0  0
 16 17  1  0  0  0  0
 17 18  1  0  0  0  0
 18 19  1  0  0  0  0
 19 20  1  0  0  0  0
 20 21  4  0  0  0  0
 21 22  4  0  0  0  0
 22 23  4  0  0  0  0
 23 24  1  0  0  0  0
 24 25  1  0  0  0  0
 23 26  4  0  0  0  0
 26 27  1  0  0  0  0
 27 28  1  0  0  0  0
 20 29  4  0  0  0  0
 26 29  4  0  0  0  0
 17 30  4  0  0  0  0
  3 31  1  0  0  0  0
 31 32  1  0  0  0  0
 31 33  1  0  0  0  0
  5 34  1  0  0  0  0
  8 35  1  0  0  0  0
  8 36  1  0  0  0  0
  8 37  1  0  0  0  0
 11 38  1  0  0  0  0
 11 39  1  0  0  0  0
 11 40  1  0  0  0  0
  4 41  1  0  0  0  0
 13 42  1  0  0  0  0
 14 43  1  0  0  0  0
 14 44  1  0  0  0  0
 15 45  1  0  0  0  0
 15 46  1  0  0  0  0
 16 47  1  0  0  0  0
 16 48  1  0  0  0  0
 18 49  1  0  0  0  0
 18 50  1  0  0  0  0
 19 51  1  0  0  0  0
 19 52  1  0  0  0  0
 21 53  1  0  0  0  0
 22 54  1  0  0  0  0
 25 55  1  0  0  0  0
 25 56  1  0  0  0  0
 25 57  1  0  0  0  0
 28 58  1  0  0  0  0
 28 59  1  0  0  0  0
 28 60  1  0  0  0  0
 29 61  1  0  0  0  0
 30 62  1  0  0  0  0
 13 63  1  0  0  0  0
 30 64  1  0  0  0  0
 31 65  1  0  0  0  0
 32 66  1  0  0  0  0
 32 67  1  0  0  0  0
 32 68  1  0  0  0  0
 33 69  1  0  0  0  0
 33 70  1  0  0  0  0
 33 71  1  0  0  0  0
  1 72  1  0  0  0  0
M  CHG  1   1   1
M  END
