 xtb: 6.6.1 (8d0f1dd)
          06052419593D

 25 25  0     0  0            999 V2000
    3.1923    1.2597   -0.6048 C   0  0  0  0  0  0  0  0  0  0  0  0
    2.6528    0.2659    0.3009 N   0  0  0  0  0  0  0  0  0  0  0  0
    3.3007   -0.1986    1.2675 C   0  0  0  0  0  0  0  0  0  0  0  0
    0.9421   -2.3358   -0.9961 N   0  0  0  0  0  0  0  0  0  0  0  0
    0.9987   -1.1945   -0.6324 C   0  0  0  0  0  0  0  0  0  0  0  0
    1.2282   -0.0681    0.0150 C   0  0  0  0  0  0  0  0  0  0  0  0
    0.3373    0.9660    0.4713 C   0  0  0  0  0  0  0  0  0  0  0  0
    0.6854    1.9777    1.0285 O   0  0  0  0  0  0  0  0  0  0  0  0
   -1.0815    0.8236    0.1953 N   0  0  0  0  0  0  0  0  0  0  0  0
   -1.8609    2.0405    0.4242 C   0  0  0  0  0  0  0  0  0  0  0  0
   -1.7172   -0.2202   -0.2180 C   0  0  0  0  0  0  0  0  0  0  0  0
   -2.9298   -0.4644   -0.6780 O   0  0  0  0  0  0  0  0  0  0  0  0
   -1.8133   -1.4840   -0.6840 N   0  0  0  0  0  0  0  0  0  0  0  0
   -2.0637   -2.6347    0.1453 C   0  0  0  0  0  0  0  0  0  0  0  0
    2.6500    2.1978   -0.4780 H   0  0  0  0  0  0  0  0  0  0  0  0
    4.2421    1.4224   -0.3709 H   0  0  0  0  0  0  0  0  0  0  0  0
    3.0886    0.9202   -1.6353 H   0  0  0  0  0  0  0  0  0  0  0  0
    2.8921   -0.9237    1.9558 H   0  0  0  0  0  0  0  0  0  0  0  0
   -1.4110    2.8591   -0.1361 H   0  0  0  0  0  0  0  0  0  0  0  0
   -2.8883    1.8835    0.1071 H   0  0  0  0  0  0  0  0  0  0  0  0
   -1.8225    2.2919    1.4842 H   0  0  0  0  0  0  0  0  0  0  0  0
   -2.4712   -2.3869    1.1276 H   0  0  0  0  0  0  0  0  0  0  0  0
   -1.1167   -3.1617    0.2497 H   0  0  0  0  0  0  0  0  0  0  0  0
   -2.7652   -3.2669   -0.3980 H   0  0  0  0  0  0  0  0  0  0  0  0
    0.8914   -2.7504   -1.9100 H   0  0  0  0  0  0  0  0  0  0  0  0
  1  2  1  0  0  0  0
  2  3  2  0  0  0  0
  4  5  2  0  0  0  0
  2  6  1  0  0  0  0
  5  6  2  0  0  0  0
  6  7  1  0  0  0  0
  7  8  2  0  0  0  0
  7  9  1  0  0  0  0
  9 10  1  0  0  0  0
  9 11  4  0  0  0  0
 11 12  1  0  0  0  0
 11 13  1  0  0  0  0
 12 13  1  0  0  0  0
 13 14  1  0  0  0  0
  1 15  1  0  0  0  0
  1 16  1  0  0  0  0
  1 17  1  0  0  0  0
  3 18  1  0  0  0  0
 10 19  1  0  0  0  0
 10 20  1  0  0  0  0
 10 21  1  0  0  0  0
 14 22  1  0  0  0  0
 14 23  1  0  0  0  0
 14 24  1  0  0  0  0
  4 25  1  0  0  0  0
M  CHG  1   1   1
M  END
