          35
 
C             -1.21468169        0.43092026       -2.26042801
C             -0.03067131        0.62934989       -1.66666399
N              0.55498423       -0.16996941       -0.73099270
C              1.94344903        0.02053272       -0.40853745
C              2.89161091       -0.66869640       -1.41676569
C              4.31937888       -0.47140222       -1.00330316
C              4.94991072        0.74917640       -1.20993303
C              6.25170684        0.95924287       -0.78787073
C              6.95959791       -0.05205261       -0.15027678
O              8.21939124        0.03909147        0.30724392
C              8.92722426        1.24762795        0.15012009
C              6.32896170       -1.31335546        0.05201054
O              7.09104406       -2.24138647        0.65788374
C              6.57637125       -3.53627005        0.86210051
C              5.01952538       -1.49415357       -0.37004479
C             -0.04581652       -1.43710636       -0.40069376
H             -1.83255670       -0.42868510       -2.07674721
H             -1.58142458        1.13938143       -2.97792566
H              0.54430730        1.51658153       -1.90136152
H              2.13210344       -0.38051044        0.59145641
H              2.16370899        1.09126427       -0.39149021
H              2.72059029       -0.23671249       -2.40524693
H              2.65547075       -1.73263718       -1.45973772
H              4.42550001        1.54660258       -1.71377831
H              6.71309954        1.91737507       -0.96270772
H              8.43645233        2.06975536        0.67982353
H              9.04285460        1.50963955       -0.90562985
H              9.90778536        1.07058081        0.58787829
H              7.37748031       -4.09696620        1.33974786
H              5.70272121       -3.52196355        1.52108978
H              6.31320849       -4.01572593       -0.08560514
H              4.53271022       -2.44482837       -0.21839589
H             -0.04037449       -2.12289277       -1.25410717
H             -1.08064366       -1.28264823       -0.09065758
H              0.50110593       -1.89250777        0.42180143
