 xtb: 6.6.1 (8d0f1dd)
          04062411153D

 72 73  0     0  0            999 V2000
   -1.8461    2.6796    2.2639 N   0  0  0  0  0  0  0  0  0  0  0  0
   -1.7570    2.0712    1.1741 C   0  0  0  0  0  0  0  0  0  0  0  0
   -2.9049    1.8811    0.2168 C   0  0  0  0  0  0  0  0  0  0  0  0
   -3.4165    0.4597    0.3176 C   0  0  0  0  0  0  0  0  0  0  0  0
   -4.3383   -0.0216   -0.5696 C   0  0  0  0  0  0  0  0  0  0  0  0
   -4.8549   -1.3230   -0.4950 C   0  0  0  0  0  0  0  0  0  0  0  0
   -5.7731   -1.8373   -1.3169 O   0  0  0  0  0  0  0  0  0  0  0  0
   -6.3735   -1.0291   -2.3040 C   0  0  0  0  0  0  0  0  0  0  0  0
   -4.3848   -2.2198    0.5318 C   0  0  0  0  0  0  0  0  0  0  0  0
   -4.9241   -3.4543    0.4693 O   0  0  0  0  0  0  0  0  0  0  0  0
   -4.5637   -4.4029    1.4473 C   0  0  0  0  0  0  0  0  0  0  0  0
   -3.4815   -1.7804    1.4420 C   0  0  0  0  0  0  0  0  0  0  0  0
   -2.9417   -0.3955    1.4395 C   0  0  0  0  0  0  0  0  0  0  0  0
   -2.3523    2.1671   -1.2083 C   0  0  0  0  0  0  0  0  0  0  0  0
   -1.4815    1.0534   -1.8124 C   0  0  0  0  0  0  0  0  0  0  0  0
   -0.1125    0.9865   -1.2334 C   0  0  0  0  0  0  0  0  0  0  0  0
    0.5295   -0.1333   -0.9212 N   0  0  0  0  0  0  0  0  0  0  0  0
    1.8999    0.0017   -0.4334 C   0  0  0  0  0  0  0  0  0  0  0  0
    2.9122   -0.2594   -1.5593 C   0  0  0  0  0  0  0  0  0  0  0  0
    4.3101   -0.0636   -1.0414 C   0  0  0  0  0  0  0  0  0  0  0  0
    4.9599    1.1497   -1.1958 C   0  0  0  0  0  0  0  0  0  0  0  0
    6.2345    1.3418   -0.6859 C   0  0  0  0  0  0  0  0  0  0  0  0
    6.8834    0.3228   -0.0034 C   0  0  0  0  0  0  0  0  0  0  0  0
    8.1154    0.3994    0.5333 O   0  0  0  0  0  0  0  0  0  0  0  0
    8.8704    1.5760    0.3553 C   0  0  0  0  0  0  0  0  0  0  0  0
    6.2229   -0.9259    0.1633 C   0  0  0  0  0  0  0  0  0  0  0  0
    6.9232   -1.8607    0.8364 O   0  0  0  0  0  0  0  0  0  0  0  0
    6.3590   -3.1349    1.0344 C   0  0  0  0  0  0  0  0  0  0  0  0
    4.9499   -1.0947   -0.3574 C   0  0  0  0  0  0  0  0  0  0  0  0
    0.0724   -1.3737   -1.0298 C   0  0  0  0  0  0  0  0  0  0  0  0
   -4.1026    2.8476    0.5024 C   0  0  0  0  0  0  0  0  0  0  0  0
   -4.8019    2.5179    1.8191 C   0  0  0  0  0  0  0  0  0  0  0  0
   -3.6933    4.3174    0.4922 C   0  0  0  0  0  0  0  0  0  0  0  0
   -4.6870    0.6189   -1.3640 H   0  0  0  0  0  0  0  0  0  0  0  0
   -6.8556   -0.1521   -1.8630 H   0  0  0  0  0  0  0  0  0  0  0  0
   -7.1275   -1.6566   -2.7752 H   0  0  0  0  0  0  0  0  0  0  0  0
   -5.6473   -0.7106   -3.0579 H   0  0  0  0  0  0  0  0  0  0  0  0
   -4.8396   -4.0662    2.4507 H   0  0  0  0  0  0  0  0  0  0  0  0
   -5.1233   -5.3029    1.2007 H   0  0  0  0  0  0  0  0  0  0  0  0
   -3.4919   -4.6214    1.4162 H   0  0  0  0  0  0  0  0  0  0  0  0
   -3.1239   -2.4235    2.2291 H   0  0  0  0  0  0  0  0  0  0  0  0
   -3.1963    0.0943    2.3912 H   0  0  0  0  0  0  0  0  0  0  0  0
   -3.1953    2.3368   -1.8776 H   0  0  0  0  0  0  0  0  0  0  0  0
   -1.7721    3.0900   -1.1742 H   0  0  0  0  0  0  0  0  0  0  0  0
   -1.9945    0.0988   -1.7064 H   0  0  0  0  0  0  0  0  0  0  0  0
   -1.3941    1.2629   -2.8862 H   0  0  0  0  0  0  0  0  0  0  0  0
   -0.8209    1.6273    0.7936 H   0  0  0  0  0  0  0  0  0  0  0  0
    0.4529    1.9025   -1.1818 H   0  0  0  0  0  0  0  0  0  0  0  0
    2.0627   -0.7130    0.3763 H   0  0  0  0  0  0  0  0  0  0  0  0
    2.0518    1.0085   -0.0397 H   0  0  0  0  0  0  0  0  0  0  0  0
    2.7186    0.4322   -2.3811 H   0  0  0  0  0  0  0  0  0  0  0  0
    2.7830   -1.2774   -1.9302 H   0  0  0  0  0  0  0  0  0  0  0  0
    4.4789    1.9565   -1.7276 H   0  0  0  0  0  0  0  0  0  0  0  0
    6.7165    2.2951   -0.8268 H   0  0  0  0  0  0  0  0  0  0  0  0
    8.4040    2.4307    0.8552 H   0  0  0  0  0  0  0  0  0  0  0  0
    9.0112    1.8044   -0.7054 H   0  0  0  0  0  0  0  0  0  0  0  0
    9.8372    1.3750    0.8131 H   0  0  0  0  0  0  0  0  0  0  0  0
    7.1047   -3.7019    1.5884 H   0  0  0  0  0  0  0  0  0  0  0  0
    5.4375   -3.0791    1.6232 H   0  0  0  0  0  0  0  0  0  0  0  0
    6.1566   -3.6366    0.0830 H   0  0  0  0  0  0  0  0  0  0  0  0
    4.4448   -2.0416   -0.2482 H   0  0  0  0  0  0  0  0  0  0  0  0
   -0.8794   -1.5844   -1.4723 H   0  0  0  0  0  0  0  0  0  0  0  0
   -1.8430   -0.4408    1.4428 H   0  0  0  0  0  0  0  0  0  0  0  0
    0.6752   -2.1843   -0.6754 H   0  0  0  0  0  0  0  0  0  0  0  0
   -4.8227    2.6911   -0.3086 H   0  0  0  0  0  0  0  0  0  0  0  0
   -4.1060    2.6179    2.6456 H   0  0  0  0  0  0  0  0  0  0  0  0
   -5.2109    1.5105    1.8086 H   0  0  0  0  0  0  0  0  0  0  0  0
   -5.6221    3.2133    1.9758 H   0  0  0  0  0  0  0  0  0  0  0  0
   -2.9727    4.5155    1.2796 H   0  0  0  0  0  0  0  0  0  0  0  0
   -3.2712    4.6149   -0.4638 H   0  0  0  0  0  0  0  0  0  0  0  0
   -4.5712    4.9321    0.6737 H   0  0  0  0  0  0  0  0  0  0  0  0
   -0.9996    2.7644    2.8183 H   0  0  0  0  0  0  0  0  0  0  0  0
  1  2  2  0  0  0  0
  2  3  1  0  0  0  0
  3  4  1  0  0  0  0
  4  5  2  0  0  0  0
  5  6  4  0  0  0  0
  6  7  1  0  0  0  0
  7  8  1  0  0  0  0
  6  9  1  0  0  0  0
  9 10  1  0  0  0  0
 10 11  1  0  0  0  0
  9 12  2  0  0  0  0
  4 13  1  0  0  0  0
 12 13  1  0  0  0  0
  3 14  1  0  0  0  0
 14 15  1  0  0  0  0
 15 16  1  0  0  0  0
 16 17  4  0  0  0  0
 17 18  1  0  0  0  0
 18 19  1  0  0  0  0
 19 20  1  0  0  0  0
 20 21  4  0  0  0  0
 21 22  4  0  0  0  0
 22 23  4  0  0  0  0
 23 24  1  0  0  0  0
 24 25  1  0  0  0  0
 23 26  4  0  0  0  0
 26 27  1  0  0  0  0
 27 28  1  0  0  0  0
 20 29  4  0  0  0  0
 26 29  4  0  0  0  0
 17 30  4  0  0  0  0
  3 31  1  0  0  0  0
 31 32  1  0  0  0  0
 31 33  1  0  0  0  0
  5 34  1  0  0  0  0
  8 35  1  0  0  0  0
  8 36  1  0  0  0  0
  8 37  1  0  0  0  0
 11 38  1  0  0  0  0
 11 39  1  0  0  0  0
 11 40  1  0  0  0  0
 12 41  1  0  0  0  0
 13 42  1  0  0  0  0
 14 43  1  0  0  0  0
 14 44  1  0  0  0  0
 15 45  1  0  0  0  0
 15 46  1  0  0  0  0
  2 47  1  0  0  0  0
 16 48  1  0  0  0  0
 18 49  1  0  0  0  0
 18 50  1  0  0  0  0
 19 51  1  0  0  0  0
 19 52  1  0  0  0  0
 21 53  1  0  0  0  0
 22 54  1  0  0  0  0
 25 55  1  0  0  0  0
 25 56  1  0  0  0  0
 25 57  1  0  0  0  0
 28 58  1  0  0  0  0
 28 59  1  0  0  0  0
 28 60  1  0  0  0  0
 29 61  1  0  0  0  0
 30 62  1  0  0  0  0
 13 63  1  0  0  0  0
 30 64  1  0  0  0  0
 31 65  1  0  0  0  0
 32 66  1  0  0  0  0
 32 67  1  0  0  0  0
 32 68  1  0  0  0  0
 33 69  1  0  0  0  0
 33 70  1  0  0  0  0
 33 71  1  0  0  0  0
  1 72  1  0  0  0  0
M  CHG  1   1   1
M  END
