          24
 
C              3.23874925        1.12584688        0.01607868
N              2.28193805        0.05187376        0.00774799
C              2.54532700       -1.25175612        0.01532198
N              1.38825198       -1.95397397        0.01925989
C              0.35488911       -1.06552866        0.01517759
C              0.91221608        0.20729393        0.00992841
C              0.11501457        1.39653143       -0.00373766
O              0.49651290        2.54517258       -0.03004677
N             -1.28823838        1.08264225        0.01972550
C             -2.14595653        2.11400320        0.05188464
C             -1.85821509       -0.22133064        0.00549221
O             -3.04772177       -0.37993647       -0.00594001
N             -0.97358968       -1.29711220        0.00702624
C             -1.51210782       -2.64593308       -0.00135021
H              3.70528595        1.21035298        0.99897108
H              4.01359596        0.94574023       -0.72717683
H              2.72147421        2.05847881       -0.20551061
H              3.52415922       -1.68778294        0.01491737
H             -1.73266653        3.10442601        0.06377621
H             -3.19880403        1.90843240        0.06724697
H             -1.22188408       -3.17700121        0.90527633
H             -1.16822896       -3.18550685       -0.88327234
H             -2.59803138       -2.56729703       -0.03351832
H              1.31802219       -2.96138574        0.02358124
