 xtb: 6.6.1 (8d0f1dd)
          06052419583D

 25 27  0     0  0            999 V2000
    2.9771    1.1844   -0.1352 C   0  0  0  0  0  0  0  0  0  0  0  0
    2.1212    0.0295   -0.1587 N   0  0  0  0  0  0  0  0  0  0  0  0
    2.5003   -1.2242   -0.3610 C   0  0  0  0  0  0  0  0  0  0  0  0
    1.4258   -2.0220   -0.3334 N   0  0  0  0  0  0  0  0  0  0  0  0
    0.3185   -1.2485   -0.1083 C   0  0  0  0  0  0  0  0  0  0  0  0
    0.7592    0.0575   -0.0097 C   0  0  0  0  0  0  0  0  0  0  0  0
    0.0005    1.2972    0.3663 C   0  0  0  0  0  0  0  0  0  0  0  0
    0.5134    2.1748    1.0260 O   0  0  0  0  0  0  0  0  0  0  0  0
   -1.2739    1.2771   -0.0436 N   0  0  0  0  0  0  0  0  0  0  0  0
   -2.2213    2.3298    0.1806 C   0  0  0  0  0  0  0  0  0  0  0  0
   -1.9708   -0.9441   -0.3681 C   0  0  0  0  0  0  0  0  0  0  0  0
   -1.6546    0.2186   -0.9641 O   0  0  0  0  0  0  0  0  0  0  0  0
   -0.9724   -1.7720    0.0014 N   0  0  0  0  0  0  0  0  0  0  0  0
   -1.1171   -3.0165    0.4457 C   0  0  0  0  0  0  0  0  0  0  0  0
    2.7022    1.8196    0.7088 H   0  0  0  0  0  0  0  0  0  0  0  0
    4.0155    0.8732   -0.0554 H   0  0  0  0  0  0  0  0  0  0  0  0
    2.8414    1.7669   -1.0483 H   0  0  0  0  0  0  0  0  0  0  0  0
    3.5096   -1.5517   -0.5205 H   0  0  0  0  0  0  0  0  0  0  0  0
   -1.7176    3.1019    0.7599 H   0  0  0  0  0  0  0  0  0  0  0  0
   -2.5562    2.7369   -0.7733 H   0  0  0  0  0  0  0  0  0  0  0  0
   -3.0801    1.9520    0.7361 H   0  0  0  0  0  0  0  0  0  0  0  0
   -2.1048   -3.4226    0.5174 H   0  0  0  0  0  0  0  0  0  0  0  0
   -0.2907   -3.5471    0.8700 H   0  0  0  0  0  0  0  0  0  0  0  0
   -2.9906   -1.2288   -0.2262 H   0  0  0  0  0  0  0  0  0  0  0  0
    1.4258   -3.0236   -0.4752 H   0  0  0  0  0  0  0  0  0  0  0  0
  1  2  1  0  0  0  0
  2  3  4  0  0  0  0
  3  4  4  0  0  0  0
  4  5  1  0  0  0  0
  2  6  1  0  0  0  0
  5  6  4  0  0  0  0
  6  7  1  0  0  0  0
  7  8  2  0  0  0  0
  7  9  4  0  0  0  0
  9 10  1  0  0  0  0
  9 12  1  0  0  0  0
 11 12  1  0  0  0  0
  5 13  1  0  0  0  0
 11 13  4  0  0  0  0
 11 14  1  0  0  0  0
 13 14  4  0  0  0  0
  1 15  1  0  0  0  0
  1 16  1  0  0  0  0
  1 17  1  0  0  0  0
  3 18  1  0  0  0  0
 10 19  1  0  0  0  0
 10 20  1  0  0  0  0
 10 21  1  0  0  0  0
 14 22  1  0  0  0  0
 14 23  1  0  0  0  0
 11 24  1  0  0  0  0
  4 25  1  0  0  0  0
M  CHG  1   1   1
M  END
