 xtb: 6.6.1 (8d0f1dd)
          04062411163D

 72 73  0     0  0            999 V2000
   -1.9641    2.9381    2.2006 N   0  0  0  0  0  0  0  0  0  0  0  0
   -1.9136    2.2111    1.1843 C   0  0  0  0  0  0  0  0  0  0  0  0
   -3.0628    1.9571    0.2484 C   0  0  0  0  0  0  0  0  0  0  0  0
   -3.4552    0.4884    0.3131 C   0  0  0  0  0  0  0  0  0  0  0  0
   -4.3444   -0.0451   -0.6227 C   0  0  0  0  0  0  0  0  0  0  0  0
   -4.7556   -1.3657   -0.5567 C   0  0  0  0  0  0  0  0  0  0  0  0
   -5.6238   -1.9594   -1.4058 O   0  0  0  0  0  0  0  0  0  0  0  0
   -6.2889   -1.1805   -2.3711 C   0  0  0  0  0  0  0  0  0  0  0  0
   -4.2531   -2.2067    0.4708 C   0  0  0  0  0  0  0  0  0  0  0  0
   -4.7018   -3.4809    0.4530 O   0  0  0  0  0  0  0  0  0  0  0  0
   -4.3110   -4.3526    1.4870 C   0  0  0  0  0  0  0  0  0  0  0  0
   -3.3723   -1.6725    1.3959 C   0  0  0  0  0  0  0  0  0  0  0  0
   -2.9838   -0.3406    1.3184 C   0  0  0  0  0  0  0  0  0  0  0  0
   -2.5392    2.3160   -1.1663 C   0  0  0  0  0  0  0  0  0  0  0  0
   -1.5568    1.2951   -1.7721 C   0  0  0  0  0  0  0  0  0  0  0  0
   -0.2214    1.2984   -1.1334 C   0  0  0  0  0  0  0  0  0  0  0  0
    0.4522    0.2100   -0.7458 N   0  0  0  0  0  0  0  0  0  0  0  0
    1.8212    0.3075   -0.3065 C   0  0  0  0  0  0  0  0  0  0  0  0
    2.8017   -0.2101   -1.3778 C   0  0  0  0  0  0  0  0  0  0  0  0
    4.2161   -0.1202   -0.8836 C   0  0  0  0  0  0  0  0  0  0  0  0
    5.0347    0.9500   -1.2198 C   0  0  0  0  0  0  0  0  0  0  0  0
    6.3409    1.0412   -0.7606 C   0  0  0  0  0  0  0  0  0  0  0  0
    6.8564    0.0518    0.0668 C   0  0  0  0  0  0  0  0  0  0  0  0
    8.1151   -0.0113    0.5848 O   0  0  0  0  0  0  0  0  0  0  0  0
    9.0284    1.0187    0.2585 C   0  0  0  0  0  0  0  0  0  0  0  0
    6.0195   -1.0120    0.4198 C   0  0  0  0  0  0  0  0  0  0  0  0
    6.5706   -2.0000    1.3018 O   0  0  0  0  0  0  0  0  0  0  0  0
    6.3783   -3.4134    0.9706 C   0  0  0  0  0  0  0  0  0  0  0  0
    4.7241   -1.1107   -0.0460 C   0  0  0  0  0  0  0  0  0  0  0  0
   -0.1464   -1.1027   -0.7691 C   0  0  0  0  0  0  0  0  0  0  0  0
   -4.3255    2.8069    0.5772 C   0  0  0  0  0  0  0  0  0  0  0  0
   -4.9017    2.4476    1.9449 C   0  0  0  0  0  0  0  0  0  0  0  0
   -4.0694    4.3101    0.5063 C   0  0  0  0  0  0  0  0  0  0  0  0
   -4.7347    0.5870   -1.4036 H   0  0  0  0  0  0  0  0  0  0  0  0
   -6.8525   -0.3638   -1.9097 H   0  0  0  0  0  0  0  0  0  0  0  0
   -6.9806   -1.8596   -2.8660 H   0  0  0  0  0  0  0  0  0  0  0  0
   -5.5937   -0.7730   -3.1124 H   0  0  0  0  0  0  0  0  0  0  0  0
   -4.6108   -3.9720    2.4680 H   0  0  0  0  0  0  0  0  0  0  0  0
   -4.8282   -5.2898    1.2910 H   0  0  0  0  0  0  0  0  0  0  0  0
   -3.2301   -4.5274    1.4780 H   0  0  0  0  0  0  0  0  0  0  0  0
   -2.9899   -2.2794    2.2003 H   0  0  0  0  0  0  0  0  0  0  0  0
   -2.3245    0.0490    2.0787 H   0  0  0  0  0  0  0  0  0  0  0  0
   -3.3894    2.4028   -1.8424 H   0  0  0  0  0  0  0  0  0  0  0  0
   -2.0525    3.2910   -1.1210 H   0  0  0  0  0  0  0  0  0  0  0  0
   -2.0058    0.3041   -1.7554 H   0  0  0  0  0  0  0  0  0  0  0  0
   -1.4210    1.5845   -2.8227 H   0  0  0  0  0  0  0  0  0  0  0  0
   -0.9893    1.7172    0.8308 H   0  0  0  0  0  0  0  0  0  0  0  0
    0.3176    2.2330   -1.1033 H   0  0  0  0  0  0  0  0  0  0  0  0
    1.9467   -0.2758    0.6111 H   0  0  0  0  0  0  0  0  0  0  0  0
    2.0568    1.3497   -0.0818 H   0  0  0  0  0  0  0  0  0  0  0  0
    2.6812    0.3861   -2.2830 H   0  0  0  0  0  0  0  0  0  0  0  0
    2.5591   -1.2469   -1.6144 H   0  0  0  0  0  0  0  0  0  0  0  0
    4.6582    1.7270   -1.8668 H   0  0  0  0  0  0  0  0  0  0  0  0
    6.9484    1.8798   -1.0556 H   0  0  0  0  0  0  0  0  0  0  0  0
    8.6798    1.9845    0.6315 H   0  0  0  0  0  0  0  0  0  0  0  0
    9.1908    1.0736   -0.8204 H   0  0  0  0  0  0  0  0  0  0  0  0
    9.9592    0.7521    0.7542 H   0  0  0  0  0  0  0  0  0  0  0  0
    7.5308   -1.8238    1.3421 H   0  0  0  0  0  0  0  0  0  0  0  0
    5.4174   -3.7404    1.3421 H   0  0  0  0  0  0  0  0  0  0  0  0
    6.5488   -3.6205   -0.0776 H   0  0  0  0  0  0  0  0  0  0  0  0
    4.1270   -1.9646    0.2321 H   0  0  0  0  0  0  0  0  0  0  0  0
   -0.3336   -1.4357   -1.7920 H   0  0  0  0  0  0  0  0  0  0  0  0
   -1.0929   -1.1001   -0.2221 H   0  0  0  0  0  0  0  0  0  0  0  0
    0.5254   -1.8116   -0.2920 H   0  0  0  0  0  0  0  0  0  0  0  0
   -5.0760    2.5532   -0.1801 H   0  0  0  0  0  0  0  0  0  0  0  0
   -4.1927    2.7029    2.7252 H   0  0  0  0  0  0  0  0  0  0  0  0
   -5.1315    1.3868    2.0086 H   0  0  0  0  0  0  0  0  0  0  0  0
   -5.8181    3.0068    2.1125 H   0  0  0  0  0  0  0  0  0  0  0  0
   -3.3016    4.5935    1.2194 H   0  0  0  0  0  0  0  0  0  0  0  0
   -3.7693    4.6247   -0.4896 H   0  0  0  0  0  0  0  0  0  0  0  0
   -4.9833    4.8406    0.7608 H   0  0  0  0  0  0  0  0  0  0  0  0
   -1.1068    3.0554    2.7318 H   0  0  0  0  0  0  0  0  0  0  0  0
  1  2  2  0  0  0  0
  2  3  1  0  0  0  0
  3  4  1  0  0  0  0
  4  5  4  0  0  0  0
  5  6  4  0  0  0  0
  6  7  1  0  0  0  0
  7  8  1  0  0  0  0
  6  9  4  0  0  0  0
  9 10  1  0  0  0  0
 10 11  1  0  0  0  0
  9 12  4  0  0  0  0
  4 13  4  0  0  0  0
 12 13  4  0  0  0  0
  3 14  1  0  0  0  0
 14 15  1  0  0  0  0
 15 16  1  0  0  0  0
 16 17  4  0  0  0  0
 17 18  1  0  0  0  0
 18 19  1  0  0  0  0
 19 20  1  0  0  0  0
 20 21  4  0  0  0  0
 21 22  4  0  0  0  0
 22 23  4  0  0  0  0
 23 24  1  0  0  0  0
 24 25  1  0  0  0  0
 23 26  4  0  0  0  0
 26 27  1  0  0  0  0
 27 28  1  0  0  0  0
 20 29  4  0  0  0  0
 26 29  4  0  0  0  0
 17 30  1  0  0  0  0
  3 31  1  0  0  0  0
 31 32  1  0  0  0  0
 31 33  1  0  0  0  0
  5 34  1  0  0  0  0
  8 35  1  0  0  0  0
  8 36  1  0  0  0  0
  8 37  1  0  0  0  0
 11 38  1  0  0  0  0
 11 39  1  0  0  0  0
 11 40  1  0  0  0  0
 12 41  1  0  0  0  0
 13 42  1  0  0  0  0
 14 43  1  0  0  0  0
 14 44  1  0  0  0  0
 15 45  1  0  0  0  0
 15 46  1  0  0  0  0
  2 47  1  0  0  0  0
 16 48  1  0  0  0  0
 18 49  1  0  0  0  0
 18 50  1  0  0  0  0
 19 51  1  0  0  0  0
 19 52  1  0  0  0  0
 21 53  1  0  0  0  0
 22 54  1  0  0  0  0
 25 55  1  0  0  0  0
 25 56  1  0  0  0  0
 25 57  1  0  0  0  0
 27 58  1  0  0  0  0
 28 59  1  0  0  0  0
 28 60  1  0  0  0  0
 29 61  1  0  0  0  0
 30 62  1  0  0  0  0
 30 63  1  0  0  0  0
 30 64  1  0  0  0  0
 31 65  1  0  0  0  0
 32 66  1  0  0  0  0
 32 67  1  0  0  0  0
 32 68  1  0  0  0  0
 33 69  1  0  0  0  0
 33 70  1  0  0  0  0
 33 71  1  0  0  0  0
  1 72  1  0  0  0  0
M  CHG  1   1   1
M  END
