 xtb: 6.6.1 (8d0f1dd)
          06052419593D

 25 25  0     0  0            999 V2000
    3.9204    2.8661    0.1153 C   0  0  0  0  0  0  0  0  0  0  0  0
    2.2062   -0.6558   -0.0442 N   0  0  0  0  0  0  0  0  0  0  0  0
    2.2590   -1.9525   -0.0829 C   0  0  0  0  0  0  0  0  0  0  0  0
    1.0118   -2.5223   -0.0921 N   0  0  0  0  0  0  0  0  0  0  0  0
    0.1271   -1.4951   -0.0593 C   0  0  0  0  0  0  0  0  0  0  0  0
    0.8934   -0.3217   -0.0301 C   0  0  0  0  0  0  0  0  0  0  0  0
    0.2575    0.9751    0.0147 C   0  0  0  0  0  0  0  0  0  0  0  0
    0.8215    2.0463    0.0388 O   0  0  0  0  0  0  0  0  0  0  0  0
   -1.1352    0.8722    0.0279 N   0  0  0  0  0  0  0  0  0  0  0  0
   -1.9022    2.1069    0.0814 C   0  0  0  0  0  0  0  0  0  0  0  0
   -1.9003   -0.2812    0.0059 C   0  0  0  0  0  0  0  0  0  0  0  0
   -3.1020   -0.2490    0.0304 O   0  0  0  0  0  0  0  0  0  0  0  0
   -1.2162   -1.5081   -0.0488 N   0  0  0  0  0  0  0  0  0  0  0  0
   -1.9795   -2.7369   -0.0798 C   0  0  0  0  0  0  0  0  0  0  0  0
    4.3420    3.1167    1.0713 H   0  0  0  0  0  0  0  0  0  0  0  0
    4.5653    2.7733   -0.7381 H   0  0  0  0  0  0  0  0  0  0  0  0
    2.8593    2.7045    0.0187 H   0  0  0  0  0  0  0  0  0  0  0  0
    3.1647   -2.5245   -0.1008 H   0  0  0  0  0  0  0  0  0  0  0  0
   -1.2079    2.9424    0.0282 H   0  0  0  0  0  0  0  0  0  0  0  0
   -2.6061    2.1413   -0.7506 H   0  0  0  0  0  0  0  0  0  0  0  0
   -2.4733    2.1513    1.0098 H   0  0  0  0  0  0  0  0  0  0  0  0
   -1.7417   -3.3549    0.7878 H   0  0  0  0  0  0  0  0  0  0  0  0
   -1.7719   -3.2910   -0.9964 H   0  0  0  0  0  0  0  0  0  0  0  0
   -3.0371   -2.4747   -0.0523 H   0  0  0  0  0  0  0  0  0  0  0  0
    0.8056   -3.5100   -0.1237 H   0  0  0  0  0  0  0  0  0  0  0  0
  2  3  2  0  0  0  0
  3  4  4  0  0  0  0
  4  5  4  0  0  0  0
  2  6  4  0  0  0  0
  5  6  4  0  0  0  0
  6  7  1  0  0  0  0
  7  8  2  0  0  0  0
  7  9  1  0  0  0  0
  9 10  1  0  0  0  0
  9 11  1  0  0  0  0
 11 12  2  0  0  0  0
  5 13  4  0  0  0  0
 11 13  1  0  0  0  0
 13 14  1  0  0  0  0
  1 15  1  0  0  0  0
  1 16  1  0  0  0  0
  1 17  1  0  0  0  0
  3 18  1  0  0  0  0
 10 19  1  0  0  0  0
 10 20  1  0  0  0  0
 10 21  1  0  0  0  0
 14 22  1  0  0  0  0
 14 23  1  0  0  0  0
 14 24  1  0  0  0  0
  4 25  1  0  0  0  0
M  CHG  1   1   1
M  END
