 xtb: 6.6.1 (8d0f1dd)
          06052419583D

 25 25  0     0  0            999 V2000
    3.1486    1.4379    0.0235 C   0  0  0  0  0  0  0  0  0  0  0  0
    2.3545    0.2928   -0.0037 N   0  0  0  0  0  0  0  0  0  0  0  0
    2.5747   -2.3418   -0.0204 C   0  0  0  0  0  0  0  0  0  0  0  0
    1.2873   -2.2369   -0.0102 N   0  0  0  0  0  0  0  0  0  0  0  0
    0.4779   -1.1118   -0.0051 C   0  0  0  0  0  0  0  0  0  0  0  0
    1.0618    0.1751    0.0012 C   0  0  0  0  0  0  0  0  0  0  0  0
    0.1410    1.3493    0.0034 C   0  0  0  0  0  0  0  0  0  0  0  0
    0.5416    2.4958    0.0086 O   0  0  0  0  0  0  0  0  0  0  0  0
   -1.2026    1.0511   -0.0059 N   0  0  0  0  0  0  0  0  0  0  0  0
   -2.1568    2.1494   -0.0097 C   0  0  0  0  0  0  0  0  0  0  0  0
   -1.7619   -0.2118   -0.0047 C   0  0  0  0  0  0  0  0  0  0  0  0
   -2.9558   -0.3770   -0.0057 O   0  0  0  0  0  0  0  0  0  0  0  0
   -0.8753   -1.2891   -0.0023 N   0  0  0  0  0  0  0  0  0  0  0  0
   -1.4715   -2.6130    0.0037 C   0  0  0  0  0  0  0  0  0  0  0  0
    3.7069    1.4739    0.9660 H   0  0  0  0  0  0  0  0  0  0  0  0
    3.8800    1.3916   -0.7898 H   0  0  0  0  0  0  0  0  0  0  0  0
    2.5486    2.3530   -0.0704 H   0  0  0  0  0  0  0  0  0  0  0  0
    3.2455   -1.4925   -0.0256 H   0  0  0  0  0  0  0  0  0  0  0  0
   -1.6073    3.0885   -0.0034 H   0  0  0  0  0  0  0  0  0  0  0  0
   -2.7873    2.0852   -0.8978 H   0  0  0  0  0  0  0  0  0  0  0  0
   -2.7999    2.0806    0.8691 H   0  0  0  0  0  0  0  0  0  0  0  0
   -1.1957   -3.1658    0.9040 H   0  0  0  0  0  0  0  0  0  0  0  0
   -1.2039   -3.1712   -0.8956 H   0  0  0  0  0  0  0  0  0  0  0  0
   -2.5546   -2.4752    0.0080 H   0  0  0  0  0  0  0  0  0  0  0  0
    0.7647   -3.1198   -0.0061 H   0  0  0  0  0  0  0  0  0  0  0  0
  1  2  1  0  0  0  0
  3  4  2  0  0  0  0
  4  5  1  0  0  0  0
  2  6  4  0  0  0  0
  5  6  4  0  0  0  0
  6  7  1  0  0  0  0
  7  8  2  0  0  0  0
  7  9  1  0  0  0  0
  9 10  1  0  0  0  0
  9 11  1  0  0  0  0
 11 12  2  0  0  0  0
  5 13  1  0  0  0  0
 11 13  1  0  0  0  0
 13 14  1  0  0  0  0
  1 15  1  0  0  0  0
  1 16  1  0  0  0  0
  1 17  1  0  0  0  0
  3 18  1  0  0  0  0
 10 19  1  0  0  0  0
 10 20  1  0  0  0  0
 10 21  1  0  0  0  0
 14 22  1  0  0  0  0
 14 23  1  0  0  0  0
 14 24  1  0  0  0  0
  4 25  1  0  0  0  0
M  CHG  1   1   1
M  END
