 xtb: 6.6.1 (8d0f1dd)
          06052420003D

 25 24  0     0  0            999 V2000
    3.6828    0.8068   -0.1446 C   0  0  0  0  0  0  0  0  0  0  0  0
    3.2292   -0.5672   -0.0671 N   0  0  0  0  0  0  0  0  0  0  0  0
    3.6372   -1.7892    0.1092 C   0  0  0  0  0  0  0  0  0  0  0  0
    2.7280   -2.8595    0.1315 N   0  0  0  0  0  0  0  0  0  0  0  0
    1.4489   -2.7587    0.0779 C   0  0  0  0  0  0  0  0  0  0  0  0
    2.3086    0.3211   -0.3415 C   0  0  0  0  0  0  0  0  0  0  0  0
   -1.6235    1.6492    0.2749 C   0  0  0  0  0  0  0  0  0  0  0  0
   -0.8835    0.7427    0.2426 O   0  0  0  0  0  0  0  0  0  0  0  0
   -2.3985    2.5071    0.4911 N   0  0  0  0  0  0  0  0  0  0  0  0
   -3.1898    3.6240    0.1664 C   0  0  0  0  0  0  0  0  0  0  0  0
   -3.6314   -0.4871   -0.6048 C   0  0  0  0  0  0  0  0  0  0  0  0
   -4.5115    0.2169   -0.6806 O   0  0  0  0  0  0  0  0  0  0  0  0
    0.3310   -2.6328   -0.2949 N   0  0  0  0  0  0  0  0  0  0  0  0
   -1.0195   -2.4746    0.0175 C   0  0  0  0  0  0  0  0  0  0  0  0
    4.0034    1.2642    0.7875 H   0  0  0  0  0  0  0  0  0  0  0  0
    4.2795    1.0862   -1.0063 H   0  0  0  0  0  0  0  0  0  0  0  0
    1.2824    0.4861   -0.1274 H   0  0  0  0  0  0  0  0  0  0  0  0
    4.6766   -2.0238    0.2337 H   0  0  0  0  0  0  0  0  0  0  0  0
   -2.6028    4.5362    0.2779 H   0  0  0  0  0  0  0  0  0  0  0  0
   -3.5651    3.5536   -0.8561 H   0  0  0  0  0  0  0  0  0  0  0  0
   -4.0299    3.6534    0.8601 H   0  0  0  0  0  0  0  0  0  0  0  0
   -1.2792   -2.9294    0.9748 H   0  0  0  0  0  0  0  0  0  0  0  0
   -1.6060   -2.9194   -0.7856 H   0  0  0  0  0  0  0  0  0  0  0  0
   -1.2444   -1.4042    0.0518 H   0  0  0  0  0  0  0  0  0  0  0  0
    3.1376   -3.7832    0.2433 H   0  0  0  0  0  0  0  0  0  0  0  0
  1  2  1  0  0  0  0
  2  3  4  0  0  0  0
  3  4  1  0  0  0  0
  4  5  4  0  0  0  0
  1  6  1  0  0  0  0
  2  6  4  0  0  0  0
  7  8  2  0  0  0  0
  7  9  2  0  0  0  0
  8  9  1  0  0  0  0
  9 10  1  0  0  0  0
 11 12  3  0  0  0  0
  5 13  2  0  0  0  0
 13 14  1  0  0  0  0
  1 15  1  0  0  0  0
  1 16  1  0  0  0  0
  6 17  1  0  0  0  0
  3 18  1  0  0  0  0
 10 19  1  0  0  0  0
 10 20  1  0  0  0  0
 10 21  1  0  0  0  0
 14 22  1  0  0  0  0
 14 23  1  0  0  0  0
 14 24  1  0  0  0  0
  4 25  1  0  0  0  0
M  CHG  1   1   1
M  END
