 xtb: 6.6.1 (8d0f1dd)
          04062411133D

 72 72  0     0  0            999 V2000
   -1.6198    2.9178    2.3030 N   0  0  0  0  0  0  0  0  0  0  0  0
   -1.5966    2.1278    1.3362 C   0  0  0  0  0  0  0  0  0  0  0  0
   -2.7916    1.9355    0.4352 C   0  0  0  0  0  0  0  0  0  0  0  0
   -3.2815    0.4987    0.4965 C   0  0  0  0  0  0  0  0  0  0  0  0
   -4.3140    0.1011   -0.3557 C   0  0  0  0  0  0  0  0  0  0  0  0
   -4.8127   -1.1902   -0.3325 C   0  0  0  0  0  0  0  0  0  0  0  0
   -5.8090   -1.6552   -1.1127 O   0  0  0  0  0  0  0  0  0  0  0  0
   -6.4819   -0.7643   -1.9716 C   0  0  0  0  0  0  0  0  0  0  0  0
   -4.2610   -2.1358    0.5750 C   0  0  0  0  0  0  0  0  0  0  0  0
   -4.8035   -3.3691    0.5283 O   0  0  0  0  0  0  0  0  0  0  0  0
   -4.3945   -4.3338    1.4696 C   0  0  0  0  0  0  0  0  0  0  0  0
   -3.2433   -1.7303    1.4231 C   0  0  0  0  0  0  0  0  0  0  0  0
   -2.7612   -0.4268    1.3856 C   0  0  0  0  0  0  0  0  0  0  0  0
   -2.3336    2.2723   -1.0084 C   0  0  0  0  0  0  0  0  0  0  0  0
   -1.4526    1.1911   -1.6597 C   0  0  0  0  0  0  0  0  0  0  0  0
   -0.0985    1.1022   -1.0729 C   0  0  0  0  0  0  0  0  0  0  0  0
    0.5351   -0.0212   -0.7614 N   0  0  0  0  0  0  0  0  0  0  0  0
    1.9093    0.0130   -0.3197 C   0  0  0  0  0  0  0  0  0  0  0  0
    2.8881   -0.3815   -1.4423 C   0  0  0  0  0  0  0  0  0  0  0  0
    4.3034   -0.1886   -0.9738 C   0  0  0  0  0  0  0  0  0  0  0  0
    4.9442    1.0263   -1.1545 C   0  0  0  0  0  0  0  0  0  0  0  0
    6.2404    1.2202   -0.7029 C   0  0  0  0  0  0  0  0  0  0  0  0
    6.9213    0.2005   -0.0538 C   0  0  0  0  0  0  0  0  0  0  0  0
    8.1782    0.2729    0.4213 O   0  0  0  0  0  0  0  0  0  0  0  0
    8.9145    1.4607    0.2399 C   0  0  0  0  0  0  0  0  0  0  0  0
    6.2690   -1.0484    0.1436 C   0  0  0  0  0  0  0  0  0  0  0  0
    7.0033   -1.9815    0.7811 O   0  0  0  0  0  0  0  0  0  0  0  0
    6.4575   -3.2606    0.9981 C   0  0  0  0  0  0  0  0  0  0  0  0
    4.9725   -1.2182   -0.3161 C   0  0  0  0  0  0  0  0  0  0  0  0
   -0.0775   -1.3180   -0.9225 C   0  0  0  0  0  0  0  0  0  0  0  0
   -3.8912    2.8872    0.9061 C   0  0  0  0  0  0  0  0  0  0  0  0
   -4.8444    2.4813    1.7341 C   0  0  0  0  0  0  0  0  0  0  0  0
   -3.7954    4.3155    0.4700 C   0  0  0  0  0  0  0  0  0  0  0  0
   -4.7500    0.8271   -1.0219 H   0  0  0  0  0  0  0  0  0  0  0  0
   -6.9340    0.0617   -1.4151 H   0  0  0  0  0  0  0  0  0  0  0  0
   -7.2638   -1.3530   -2.4475 H   0  0  0  0  0  0  0  0  0  0  0  0
   -5.8125   -0.3651   -2.7407 H   0  0  0  0  0  0  0  0  0  0  0  0
   -4.5685   -3.9922    2.4942 H   0  0  0  0  0  0  0  0  0  0  0  0
   -5.0070   -5.2115    1.2731 H   0  0  0  0  0  0  0  0  0  0  0  0
   -3.3385   -4.5949    1.3456 H   0  0  0  0  0  0  0  0  0  0  0  0
   -2.8226   -2.4205    2.1364 H   0  0  0  0  0  0  0  0  0  0  0  0
   -1.9920   -0.1409    2.0863 H   0  0  0  0  0  0  0  0  0  0  0  0
   -3.2187    2.3974   -1.6316 H   0  0  0  0  0  0  0  0  0  0  0  0
   -1.7948    3.2204   -0.9992 H   0  0  0  0  0  0  0  0  0  0  0  0
   -1.9687    0.2329   -1.6291 H   0  0  0  0  0  0  0  0  0  0  0  0
   -1.3392    1.4731   -2.7149 H   0  0  0  0  0  0  0  0  0  0  0  0
   -0.7148    1.5418    1.0233 H   0  0  0  0  0  0  0  0  0  0  0  0
    0.4651    2.0183   -0.9785 H   0  0  0  0  0  0  0  0  0  0  0  0
    2.0308   -0.6695    0.5259 H   0  0  0  0  0  0  0  0  0  0  0  0
    2.1534    1.0220    0.0193 H   0  0  0  0  0  0  0  0  0  0  0  0
    2.6964    0.2506   -2.3111 H   0  0  0  0  0  0  0  0  0  0  0  0
    2.7227   -1.4209   -1.7277 H   0  0  0  0  0  0  0  0  0  0  0  0
    4.4392    1.8328   -1.6642 H   0  0  0  0  0  0  0  0  0  0  0  0
    6.7155    2.1734   -0.8668 H   0  0  0  0  0  0  0  0  0  0  0  0
    8.4408    2.3076    0.7457 H   0  0  0  0  0  0  0  0  0  0  0  0
    9.0428    1.6933   -0.8215 H   0  0  0  0  0  0  0  0  0  0  0  0
    9.8880    1.2717    0.6882 H   0  0  0  0  0  0  0  0  0  0  0  0
    7.2409   -3.8321    1.4921 H   0  0  0  0  0  0  0  0  0  0  0  0
    5.5782   -3.2163    1.6488 H   0  0  0  0  0  0  0  0  0  0  0  0
    6.1927   -3.7498    0.0557 H   0  0  0  0  0  0  0  0  0  0  0  0
    4.4725   -2.1643   -0.1788 H   0  0  0  0  0  0  0  0  0  0  0  0
   -0.2434   -1.5460   -1.9776 H   0  0  0  0  0  0  0  0  0  0  0  0
   -1.0359   -1.3565   -0.3993 H   0  0  0  0  0  0  0  0  0  0  0  0
    0.5762   -2.0778   -0.5022 H   0  0  0  0  0  0  0  0  0  0  0  0
   -7.4332    2.5816   -0.4541 H   0  0  0  0  0  0  0  0  0  0  0  0
   -5.5815    3.1703    2.1097 H   0  0  0  0  0  0  0  0  0  0  0  0
   -4.9243    1.4657    2.0822 H   0  0  0  0  0  0  0  0  0  0  0  0
   -6.7838    2.5699   -0.0178 H   0  0  0  0  0  0  0  0  0  0  0  0
   -4.5241    4.9148    1.0114 H   0  0  0  0  0  0  0  0  0  0  0  0
   -2.8011    4.7084    0.6850 H   0  0  0  0  0  0  0  0  0  0  0  0
   -3.9928    4.4237   -0.5973 H   0  0  0  0  0  0  0  0  0  0  0  0
   -0.7768    3.0165    2.8592 H   0  0  0  0  0  0  0  0  0  0  0  0
  1  2  2  0  0  0  0
  2  3  1  0  0  0  0
  3  4  1  0  0  0  0
  4  5  4  0  0  0  0
  5  6  4  0  0  0  0
  6  7  1  0  0  0  0
  7  8  1  0  0  0  0
  6  9  4  0  0  0  0
  9 10  1  0  0  0  0
 10 11  1  0  0  0  0
  9 12  4  0  0  0  0
  4 13  4  0  0  0  0
 12 13  4  0  0  0  0
  3 14  1  0  0  0  0
 14 15  1  0  0  0  0
 15 16  1  0  0  0  0
 16 17  4  0  0  0  0
 17 18  1  0  0  0  0
 18 19  1  0  0  0  0
 19 20  1  0  0  0  0
 20 21  4  0  0  0  0
 21 22  4  0  0  0  0
 22 23  4  0  0  0  0
 23 24  1  0  0  0  0
 24 25  1  0  0  0  0
 23 26  4  0  0  0  0
 26 27  1  0  0  0  0
 27 28  1  0  0  0  0
 20 29  4  0  0  0  0
 26 29  4  0  0  0  0
 17 30  1  0  0  0  0
  3 31  1  0  0  0  0
 31 32  2  0  0  0  0
 31 33  1  0  0  0  0
  5 34  1  0  0  0  0
  8 35  1  0  0  0  0
  8 36  1  0  0  0  0
  8 37  1  0  0  0  0
 11 38  1  0  0  0  0
 11 39  1  0  0  0  0
 11 40  1  0  0  0  0
 12 41  1  0  0  0  0
 13 42  1  0  0  0  0
 14 43  1  0  0  0  0
 14 44  1  0  0  0  0
 15 45  1  0  0  0  0
 15 46  1  0  0  0  0
  2 47  1  0  0  0  0
 16 48  1  0  0  0  0
 18 49  1  0  0  0  0
 18 50  1  0  0  0  0
 19 51  1  0  0  0  0
 19 52  1  0  0  0  0
 21 53  1  0  0  0  0
 22 54  1  0  0  0  0
 25 55  1  0  0  0  0
 25 56  1  0  0  0  0
 25 57  1  0  0  0  0
 28 58  1  0  0  0  0
 28 59  1  0  0  0  0
 28 60  1  0  0  0  0
 29 61  1  0  0  0  0
 30 62  1  0  0  0  0
 30 63  1  0  0  0  0
 30 64  1  0  0  0  0
 32 66  1  0  0  0  0
 32 67  1  0  0  0  0
 65 68  1  0  0  0  0
 33 69  1  0  0  0  0
 33 70  1  0  0  0  0
 33 71  1  0  0  0  0
  1 72  1  0  0  0  0
M  CHG  1   1   1
M  END
