           7
 
N             -3.11872993        1.28096626       -0.04681309
C             -3.10636248        2.69160693       -0.08916441
C             -3.75695168        0.28061173       -0.02646703
O             -4.17902665       -0.79928771       -0.00698447
H             -2.06542230        3.01485817       -0.05737660
H             -3.56697275        3.05583450       -1.00990257
H             -3.63819724        3.11146724        0.76714279
