           6
 
C              6.16070380       -0.23633068       -0.65159002
N              4.95434892       -0.77643995       -0.23525057
C              3.95778614       -1.22232534        0.14156685
H              6.84892285       -0.20343900        0.19373454
H              6.58171491       -0.85553084       -1.44451721
H              5.98809697        0.77415379       -1.02545130
