          66
 
N             -1.52417056        3.32140173        2.33902191
C             -1.54839742        2.61885900        1.30804704
C             -2.73140072        2.47489008        0.39555909
C             -3.22608750        1.05667398        0.48509570
C             -4.20477839        0.48077835       -0.33615676
C             -4.38026011       -0.85282369        0.07442726
O             -5.22041972       -1.79303642       -0.40675957
C             -6.05439129       -1.40810883       -1.48010484
C             -3.49324470       -1.10672492        1.15187425
C             -2.79171459        0.06321590        1.39886924
C             -2.23025285        2.76745100       -1.04456459
C             -1.41198537        1.62863141       -1.67686794
C             -0.07501518        1.44982781       -1.07186771
N              0.46163129        0.28818932       -0.73250347
C              1.84009637        0.21364981       -0.31155688
C              2.75609256       -0.27131994       -1.45202121
C              4.19077027       -0.22822353       -1.00693144
C              4.93559161        0.93111064       -1.14727114
C              6.25008951        0.98772479       -0.71068876
C              6.84533575       -0.11708530       -0.11954127
O              8.11053911       -0.17696542        0.33754779
C              8.94004635        0.95463413        0.21028734
C              6.08758056       -1.31074016        0.03202742
O              6.74372213       -2.33616107        0.61239574
C              6.08527544       -3.56887263        0.77791814
C              4.77440112       -1.34273805       -0.40952093
C             -0.27848482       -0.94880356       -0.80753193
C             -3.90920233        3.43461508        0.73922595
C             -4.49845975        3.12230457        2.11173311
C             -3.51933113        4.90779765        0.66399970
H             -4.73813933        0.97746428       -1.12289860
H             -6.72681568       -0.59861367       -1.18045311
H             -6.63431803       -2.28759101       -1.75184444
H             -5.46105561       -1.08794832       -2.34058014
H             -3.40180520       -2.03665620        1.67740736
H             -2.06615128        0.20154711        2.17917014
H             -3.09930153        2.94221665       -1.67807493
H             -1.63233838        3.67994084       -1.03395449
H             -1.99390742        0.70938080       -1.64331527
H             -1.26133087        1.89665620       -2.73072534
H             -0.68239353        2.03453704        0.93937351
H              0.56941500        2.31591715       -1.02003043
H              1.92047782       -0.46984975        0.53761195
H              2.17549434        1.20122674        0.01231046
H              2.61486994        0.38251784       -2.31451686
H              2.47902765       -1.28621153       -1.73921647
H              4.49820452        1.80147732       -1.61252066
H              6.80641464        1.90134454       -0.84071525
H              8.54132954        1.80850993        0.76662006
H              9.07844499        1.23391816       -0.83854724
H              9.89845137        0.66319807        0.63546666
H              6.81478878       -4.22943076        1.24242944
H              5.21444420       -3.47424527        1.43471452
H              5.77557453       -3.99097357       -0.18326236
H              4.19260317       -2.24513941       -0.30510433
H             -0.55334268       -1.18166463       -1.83741750
H             -1.18972210       -0.88376894       -0.20448817
H              0.33463151       -1.75830300       -0.42112775
H             -4.68452742        3.24385065       -0.01207568
H             -3.76853820        3.33108460        2.88718176
H             -4.79406393        2.07797093        2.17871698
H             -5.37575440        3.74117417        2.28306563
H             -2.72124870        5.12117238        1.36880420
H             -3.20178538        5.19326174       -0.33541752
H             -4.37848885        5.51958328        0.92791822
H             -0.66462963        3.34909969        2.87843781
