 xtb: 6.6.1 (8d0f1dd)
          04062411113D

 72 73  0     0  0            999 V2000
   -1.7175    2.6242    2.4775 N   0  0  0  0  0  0  0  0  0  0  0  0
   -1.5227    1.8375    1.5281 C   0  0  0  0  0  0  0  0  0  0  0  0
   -2.4932    1.6727    0.3665 C   0  0  0  0  0  0  0  0  0  0  0  0
   -3.1236    0.2901    0.4464 C   0  0  0  0  0  0  0  0  0  0  0  0
   -4.0337   -0.1014   -0.5373 C   0  0  0  0  0  0  0  0  0  0  0  0
   -4.6633   -1.3361   -0.4961 C   0  0  0  0  0  0  0  0  0  0  0  0
   -5.5594   -1.7760   -1.3962 O   0  0  0  0  0  0  0  0  0  0  0  0
   -5.9584   -0.9257   -2.4479 C   0  0  0  0  0  0  0  0  0  0  0  0
   -4.3688   -2.2383    0.5665 C   0  0  0  0  0  0  0  0  0  0  0  0
   -5.0068   -3.4195    0.5172 O   0  0  0  0  0  0  0  0  0  0  0  0
   -4.7928   -4.3671    1.5381 C   0  0  0  0  0  0  0  0  0  0  0  0
   -3.4776   -1.8331    1.5505 C   0  0  0  0  0  0  0  0  0  0  0  0
   -2.8707   -0.5865    1.4948 C   0  0  0  0  0  0  0  0  0  0  0  0
   -1.6616    1.8584   -0.9099 C   0  0  0  0  0  0  0  0  0  0  0  0
   -1.5933    0.9100   -2.0722 C   0  0  0  0  0  0  0  0  0  0  0  0
   -0.3619    1.1303   -1.2476 C   0  0  0  0  0  0  0  0  0  0  0  0
    0.2115    0.1216   -0.4173 N   0  0  0  0  0  0  0  0  0  0  0  0
    1.6130    0.2955   -0.1212 C   0  0  0  0  0  0  0  0  0  0  0  0
    2.5604   -0.1034   -1.2785 C   0  0  0  0  0  0  0  0  0  0  0  0
    3.9896    0.0688   -0.8660 C   0  0  0  0  0  0  0  0  0  0  0  0
    4.6488    1.2761   -1.0606 C   0  0  0  0  0  0  0  0  0  0  0  0
    5.9669    1.4388   -0.6682 C   0  0  0  0  0  0  0  0  0  0  0  0
    6.6585    0.3962   -0.0632 C   0  0  0  0  0  0  0  0  0  0  0  0
    7.9352    0.4350    0.3485 O   0  0  0  0  0  0  0  0  0  0  0  0
    8.6946    1.6055    0.1478 C   0  0  0  0  0  0  0  0  0  0  0  0
    5.9877   -0.8433    0.1531 C   0  0  0  0  0  0  0  0  0  0  0  0
    6.7276   -1.7961    0.7458 O   0  0  0  0  0  0  0  0  0  0  0  0
    6.1667   -3.0666    0.9794 C   0  0  0  0  0  0  0  0  0  0  0  0
    4.6679   -0.9803   -0.2506 C   0  0  0  0  0  0  0  0  0  0  0  0
   -0.2082   -1.2471   -0.6121 C   0  0  0  0  0  0  0  0  0  0  0  0
   -3.6449    2.7311    0.3875 C   0  0  0  0  0  0  0  0  0  0  0  0
   -4.6125    2.4785    1.5371 C   0  0  0  0  0  0  0  0  0  0  0  0
   -3.1772    4.1794    0.4413 C   0  0  0  0  0  0  0  0  0  0  0  0
   -4.2751    0.5857   -1.3322 H   0  0  0  0  0  0  0  0  0  0  0  0
   -6.3877    0.0072   -2.0706 H   0  0  0  0  0  0  0  0  0  0  0  0
   -6.7177   -1.4779   -2.9976 H   0  0  0  0  0  0  0  0  0  0  0  0
   -5.1220   -0.6965   -3.1159 H   0  0  0  0  0  0  0  0  0  0  0  0
   -5.1023   -3.9820    2.5137 H   0  0  0  0  0  0  0  0  0  0  0  0
   -5.4114   -5.2233    1.2756 H   0  0  0  0  0  0  0  0  0  0  0  0
   -3.7443   -4.6771    1.5824 H   0  0  0  0  0  0  0  0  0  0  0  0
   -3.2548   -2.4838    2.3804 H   0  0  0  0  0  0  0  0  0  0  0  0
   -2.2047   -0.3065    2.2950 H   0  0  0  0  0  0  0  0  0  0  0  0
   -5.2689    2.5729   -1.8787 H   0  0  0  0  0  0  0  0  0  0  0  0
   -1.6200    2.9031   -1.1906 H   0  0  0  0  0  0  0  0  0  0  0  0
   -2.0849   -0.0441   -1.9949 H   0  0  0  0  0  0  0  0  0  0  0  0
   -1.6202    1.3303   -3.0664 H   0  0  0  0  0  0  0  0  0  0  0  0
   -0.6370    1.2004    1.4184 H   0  0  0  0  0  0  0  0  0  0  0  0
    0.3943    1.7792   -1.6772 H   0  0  0  0  0  0  0  0  0  0  0  0
    1.8526   -0.3162    0.7534 H   0  0  0  0  0  0  0  0  0  0  0  0
    1.7888    1.3424    0.1391 H   0  0  0  0  0  0  0  0  0  0  0  0
    2.3427    0.5200   -2.1469 H   0  0  0  0  0  0  0  0  0  0  0  0
    2.3739   -1.1446   -1.5436 H   0  0  0  0  0  0  0  0  0  0  0  0
    4.1360    2.0984   -1.5354 H   0  0  0  0  0  0  0  0  0  0  0  0
    6.4541    2.3842   -0.8419 H   0  0  0  0  0  0  0  0  0  0  0  0
    8.2714    2.4551    0.6919 H   0  0  0  0  0  0  0  0  0  0  0  0
    8.7727    1.8534   -0.9147 H   0  0  0  0  0  0  0  0  0  0  0  0
    9.6845    1.3818    0.5408 H   0  0  0  0  0  0  0  0  0  0  0  0
    6.9556   -3.6526    1.4467 H   0  0  0  0  0  0  0  0  0  0  0  0
    5.3098   -3.0075    1.6578 H   0  0  0  0  0  0  0  0  0  0  0  0
    5.8625   -3.5479    0.0451 H   0  0  0  0  0  0  0  0  0  0  0  0
    4.1548   -1.9176   -0.1024 H   0  0  0  0  0  0  0  0  0  0  0  0
   -0.0272   -1.5994   -1.6341 H   0  0  0  0  0  0  0  0  0  0  0  0
   -1.2699   -1.3442   -0.3931 H   0  0  0  0  0  0  0  0  0  0  0  0
    0.3390   -1.8828    0.0811 H   0  0  0  0  0  0  0  0  0  0  0  0
   -4.2265    2.6160   -0.5741 H   0  0  0  0  0  0  0  0  0  0  0  0
   -4.0891    2.5985    2.4834 H   0  0  0  0  0  0  0  0  0  0  0  0
   -5.0409    1.4801    1.4978 H   0  0  0  0  0  0  0  0  0  0  0  0
   -5.4245    3.2001    1.4989 H   0  0  0  0  0  0  0  0  0  0  0  0
   -2.6155    4.3524    1.3568 H   0  0  0  0  0  0  0  0  0  0  0  0
   -2.5606    4.4603   -0.4090 H   0  0  0  0  0  0  0  0  0  0  0  0
   -4.0465    4.8324    0.4438 H   0  0  0  0  0  0  0  0  0  0  0  0
   -1.0147    2.6852    3.2071 H   0  0  0  0  0  0  0  0  0  0  0  0
  1  2  2  0  0  0  0
  2  3  1  0  0  0  0
  3  4  1  0  0  0  0
  4  5  4  0  0  0  0
  5  6  4  0  0  0  0
  6  7  1  0  0  0  0
  7  8  1  0  0  0  0
  6  9  4  0  0  0  0
  9 10  1  0  0  0  0
 10 11  1  0  0  0  0
  9 12  4  0  0  0  0
  4 13  4  0  0  0  0
 12 13  4  0  0  0  0
  3 14  1  0  0  0  0
 14 15  1  0  0  0  0
 14 16  1  0  0  0  0
 15 16  1  0  0  0  0
 16 17  1  0  0  0  0
 17 18  1  0  0  0  0
 18 19  1  0  0  0  0
 19 20  1  0  0  0  0
 20 21  4  0  0  0  0
 21 22  4  0  0  0  0
 22 23  4  0  0  0  0
 23 24  1  0  0  0  0
 24 25  1  0  0  0  0
 23 26  4  0  0  0  0
 26 27  1  0  0  0  0
 27 28  1  0  0  0  0
 20 29  4  0  0  0  0
 26 29  4  0  0  0  0
 17 30  1  0  0  0  0
  3 31  1  0  0  0  0
 31 32  1  0  0  0  0
 31 33  1  0  0  0  0
  5 34  1  0  0  0  0
  8 35  1  0  0  0  0
  8 36  1  0  0  0  0
  8 37  1  0  0  0  0
 11 38  1  0  0  0  0
 11 39  1  0  0  0  0
 11 40  1  0  0  0  0
 12 41  1  0  0  0  0
 13 42  1  0  0  0  0
 14 44  1  0  0  0  0
 15 45  1  0  0  0  0
 15 46  1  0  0  0  0
  2 47  1  0  0  0  0
 16 48  1  0  0  0  0
 18 49  1  0  0  0  0
 18 50  1  0  0  0  0
 19 51  1  0  0  0  0
 19 52  1  0  0  0  0
 21 53  1  0  0  0  0
 22 54  1  0  0  0  0
 25 55  1  0  0  0  0
 25 56  1  0  0  0  0
 25 57  1  0  0  0  0
 28 58  1  0  0  0  0
 28 59  1  0  0  0  0
 28 60  1  0  0  0  0
 29 61  1  0  0  0  0
 30 62  1  0  0  0  0
 30 63  1  0  0  0  0
 30 64  1  0  0  0  0
 31 65  1  0  0  0  0
 32 66  1  0  0  0  0
 32 67  1  0  0  0  0
 32 68  1  0  0  0  0
 33 69  1  0  0  0  0
 33 70  1  0  0  0  0
 33 71  1  0  0  0  0
  1 72  1  0  0  0  0
M  CHG  1   1   1
M  END
