 xtb: 6.6.1 (8d0f1dd)
          04062411133D

 72 72  0     0  0            999 V2000
   -1.8358    3.4135    2.0855 N   0  0  0  0  0  0  0  0  0  0  0  0
   -2.1180    2.2122    1.7309 C   0  0  0  0  0  0  0  0  0  0  0  0
   -3.3842    1.8286    1.2360 C   0  0  0  0  0  0  0  0  0  0  0  0
   -3.6240    0.4603    0.8796 C   0  0  0  0  0  0  0  0  0  0  0  0
   -4.5637    0.1141   -0.1186 C   0  0  0  0  0  0  0  0  0  0  0  0
   -4.8278   -1.1981   -0.4529 C   0  0  0  0  0  0  0  0  0  0  0  0
   -5.6995   -1.6034   -1.3999 O   0  0  0  0  0  0  0  0  0  0  0  0
   -6.5148   -0.6490   -2.0410 C   0  0  0  0  0  0  0  0  0  0  0  0
   -4.1467   -2.2498    0.2253 C   0  0  0  0  0  0  0  0  0  0  0  0
   -4.4806   -3.4992   -0.1502 O   0  0  0  0  0  0  0  0  0  0  0  0
   -3.9433   -4.5959    0.5514 C   0  0  0  0  0  0  0  0  0  0  0  0
   -3.2138   -1.9165    1.2008 C   0  0  0  0  0  0  0  0  0  0  0  0
   -2.9517   -0.5972    1.5177 C   0  0  0  0  0  0  0  0  0  0  0  0
   -1.9993    2.0518   -2.6206 C   0  0  0  0  0  0  0  0  0  0  0  0
   -1.5219    0.8401   -1.9390 C   0  0  0  0  0  0  0  0  0  0  0  0
   -0.1909    0.9581   -1.3194 C   0  0  0  0  0  0  0  0  0  0  0  0
    0.4427   -0.0498   -0.7393 N   0  0  0  0  0  0  0  0  0  0  0  0
    1.8043    0.0926   -0.2807 C   0  0  0  0  0  0  0  0  0  0  0  0
    2.8100   -0.4521   -1.3145 C   0  0  0  0  0  0  0  0  0  0  0  0
    4.2194   -0.2158   -0.8479 C   0  0  0  0  0  0  0  0  0  0  0  0
    4.8353    1.0064   -1.0672 C   0  0  0  0  0  0  0  0  0  0  0  0
    6.1291    1.2392   -0.6287 C   0  0  0  0  0  0  0  0  0  0  0  0
    6.8355    0.2514    0.0432 C   0  0  0  0  0  0  0  0  0  0  0  0
    8.0929    0.3625    0.5076 O   0  0  0  0  0  0  0  0  0  0  0  0
    8.8015    1.5625    0.2979 C   0  0  0  0  0  0  0  0  0  0  0  0
    6.2107   -1.0056    0.2767 C   0  0  0  0  0  0  0  0  0  0  0  0
    6.9690   -1.9071    0.9303 O   0  0  0  0  0  0  0  0  0  0  0  0
    6.4563   -3.1951    1.1750 C   0  0  0  0  0  0  0  0  0  0  0  0
    4.9144   -1.2133   -0.1686 C   0  0  0  0  0  0  0  0  0  0  0  0
   -0.1401   -1.3672   -0.7081 C   0  0  0  0  0  0  0  0  0  0  0  0
   -4.4732    2.8577    1.1088 C   0  0  0  0  0  0  0  0  0  0  0  0
   -4.8150    3.4285    2.4918 C   0  0  0  0  0  0  0  0  0  0  0  0
   -4.0709    3.9856    0.1554 C   0  0  0  0  0  0  0  0  0  0  0  0
   -5.0684    0.9032   -0.6510 H   0  0  0  0  0  0  0  0  0  0  0  0
   -7.1198   -0.0898   -1.3206 H   0  0  0  0  0  0  0  0  0  0  0  0
   -7.1707   -1.2189   -2.6952 H   0  0  0  0  0  0  0  0  0  0  0  0
   -5.9234    0.0492   -2.6403 H   0  0  0  0  0  0  0  0  0  0  0  0
   -4.1776   -4.5420    1.6179 H   0  0  0  0  0  0  0  0  0  0  0  0
   -4.4165   -5.4760    0.1218 H   0  0  0  0  0  0  0  0  0  0  0  0
   -2.8590   -4.6663    0.4186 H   0  0  0  0  0  0  0  0  0  0  0  0
   -2.7011   -2.6946    1.7445 H   0  0  0  0  0  0  0  0  0  0  0  0
   -2.2614   -0.3893    2.3193 H   0  0  0  0  0  0  0  0  0  0  0  0
   -2.9170    2.0170   -3.1716 H   0  0  0  0  0  0  0  0  0  0  0  0
   -1.4764    2.9830   -2.5452 H   0  0  0  0  0  0  0  0  0  0  0  0
   -2.2589    0.5492   -1.1606 H   0  0  0  0  0  0  0  0  0  0  0  0
   -1.5381   -0.0148   -2.6372 H   0  0  0  0  0  0  0  0  0  0  0  0
   -1.3533    1.4233    1.7506 H   0  0  0  0  0  0  0  0  0  0  0  0
    0.3047    1.9159   -1.3187 H   0  0  0  0  0  0  0  0  0  0  0  0
    1.9231   -0.4471    0.6626 H   0  0  0  0  0  0  0  0  0  0  0  0
    2.0143    1.1485   -0.1012 H   0  0  0  0  0  0  0  0  0  0  0  0
    2.6443    0.0609   -2.2638 H   0  0  0  0  0  0  0  0  0  0  0  0
    2.6399   -1.5189   -1.4639 H   0  0  0  0  0  0  0  0  0  0  0  0
    4.3121    1.7871   -1.5982 H   0  0  0  0  0  0  0  0  0  0  0  0
    6.5840    2.1967   -0.8219 H   0  0  0  0  0  0  0  0  0  0  0  0
    8.3112    2.4084    0.7892 H   0  0  0  0  0  0  0  0  0  0  0  0
    8.9195    1.7764   -0.7685 H   0  0  0  0  0  0  0  0  0  0  0  0
    9.7812    1.4044    0.7448 H   0  0  0  0  0  0  0  0  0  0  0  0
    7.2529   -3.7342    1.6842 H   0  0  0  0  0  0  0  0  0  0  0  0
    5.5739   -3.1599    1.8218 H   0  0  0  0  0  0  0  0  0  0  0  0
    6.2083   -3.7119    0.2428 H   0  0  0  0  0  0  0  0  0  0  0  0
    4.4358   -2.1660   -0.0030 H   0  0  0  0  0  0  0  0  0  0  0  0
   -0.2457   -1.7767   -1.7163 H   0  0  0  0  0  0  0  0  0  0  0  0
   -1.1312   -1.3333   -0.2480 H   0  0  0  0  0  0  0  0  0  0  0  0
    0.4942   -2.0313   -0.1269 H   0  0  0  0  0  0  0  0  0  0  0  0
   -5.3769    2.3748    0.7267 H   0  0  0  0  0  0  0  0  0  0  0  0
   -3.9505    3.9441    2.8977 H   0  0  0  0  0  0  0  0  0  0  0  0
   -5.1084    2.6324    3.1718 H   0  0  0  0  0  0  0  0  0  0  0  0
   -5.6384    4.1317    2.4027 H   0  0  0  0  0  0  0  0  0  0  0  0
   -3.2009    4.5006    0.5537 H   0  0  0  0  0  0  0  0  0  0  0  0
   -3.8264    3.5911   -0.8300 H   0  0  0  0  0  0  0  0  0  0  0  0
   -4.8858    4.6964    0.0553 H   0  0  0  0  0  0  0  0  0  0  0  0
   -0.8933    3.5911    2.4103 H   0  0  0  0  0  0  0  0  0  0  0  0
  1  2  2  0  0  0  0
  2  3  4  0  0  0  0
  3  4  4  0  0  0  0
  4  5  4  0  0  0  0
  5  6  4  0  0  0  0
  6  7  1  0  0  0  0
  7  8  1  0  0  0  0
  6  9  4  0  0  0  0
  9 10  1  0  0  0  0
 10 11  1  0  0  0  0
  9 12  4  0  0  0  0
  4 13  4  0  0  0  0
 12 13  4  0  0  0  0
 14 15  1  0  0  0  0
 15 16  1  0  0  0  0
 16 17  4  0  0  0  0
 17 18  1  0  0  0  0
 18 19  1  0  0  0  0
 19 20  1  0  0  0  0
 20 21  4  0  0  0  0
 21 22  4  0  0  0  0
 22 23  4  0  0  0  0
 23 24  1  0  0  0  0
 24 25  1  0  0  0  0
 23 26  4  0  0  0  0
 26 27  1  0  0  0  0
 27 28  1  0  0  0  0
 20 29  4  0  0  0  0
 26 29  4  0  0  0  0
 17 30  1  0  0  0  0
  3 31  1  0  0  0  0
 31 32  1  0  0  0  0
 31 33  1  0  0  0  0
  5 34  1  0  0  0  0
  8 35  1  0  0  0  0
  8 36  1  0  0  0  0
  8 37  1  0  0  0  0
 11 38  1  0  0  0  0
 11 39  1  0  0  0  0
 11 40  1  0  0  0  0
 12 41  1  0  0  0  0
 13 42  1  0  0  0  0
 14 43  1  0  0  0  0
 14 44  1  0  0  0  0
 15 45  1  0  0  0  0
 15 46  1  0  0  0  0
  2 47  1  0  0  0  0
 16 48  1  0  0  0  0
 18 49  1  0  0  0  0
 18 50  1  0  0  0  0
 19 51  1  0  0  0  0
 19 52  1  0  0  0  0
 21 53  1  0  0  0  0
 22 54  1  0  0  0  0
 25 55  1  0  0  0  0
 25 56  1  0  0  0  0
 25 57  1  0  0  0  0
 28 58  1  0  0  0  0
 28 59  1  0  0  0  0
 28 60  1  0  0  0  0
 29 61  1  0  0  0  0
 30 62  1  0  0  0  0
 30 63  1  0  0  0  0
 30 64  1  0  0  0  0
 31 65  1  0  0  0  0
 32 66  1  0  0  0  0
 32 67  1  0  0  0  0
 32 68  1  0  0  0  0
 33 69  1  0  0  0  0
 33 70  1  0  0  0  0
 33 71  1  0  0  0  0
  1 72  1  0  0  0  0
M  CHG  1   1   1
M  END
