 xtb: 6.6.1 (8d0f1dd)
          06052419583D

 25 25  0     0  0            999 V2000
    3.0439    1.1888   -0.0406 C   0  0  0  0  0  0  0  0  0  0  0  0
    2.1502    0.0639   -0.0731 N   0  0  0  0  0  0  0  0  0  0  0  0
    2.5265   -1.2151   -0.0999 C   0  0  0  0  0  0  0  0  0  0  0  0
    1.4341   -1.9971   -0.1031 N   0  0  0  0  0  0  0  0  0  0  0  0
    0.3230   -1.1880   -0.0849 C   0  0  0  0  0  0  0  0  0  0  0  0
    0.7777    0.1207   -0.0520 C   0  0  0  0  0  0  0  0  0  0  0  0
   -0.0094    1.3821    0.0504 C   0  0  0  0  0  0  0  0  0  0  0  0
    0.5267    2.4741   -0.1507 O   0  0  0  0  0  0  0  0  0  0  0  0
   -1.2619    1.1637    0.4056 N   0  0  0  0  0  0  0  0  0  0  0  0
   -2.2153    2.1862    0.5375 C   0  0  0  0  0  0  0  0  0  0  0  0
   -1.8258   -1.1256   -1.1215 C   0  0  0  0  0  0  0  0  0  0  0  0
   -1.4412   -0.3472   -1.9503 O   0  0  0  0  0  0  0  0  0  0  0  0
   -0.9715   -1.6896   -0.1520 N   0  0  0  0  0  0  0  0  0  0  0  0
   -1.3464   -2.7132    0.6340 C   0  0  0  0  0  0  0  0  0  0  0  0
    3.2239    1.4992    0.9912 H   0  0  0  0  0  0  0  0  0  0  0  0
    3.9906    0.9215   -0.5052 H   0  0  0  0  0  0  0  0  0  0  0  0
    2.5860    2.0294   -0.5644 H   0  0  0  0  0  0  0  0  0  0  0  0
    3.5389   -1.5661   -0.1145 H   0  0  0  0  0  0  0  0  0  0  0  0
   -1.7581    3.1841    0.5562 H   0  0  0  0  0  0  0  0  0  0  0  0
   -2.9153    2.1397   -0.3055 H   0  0  0  0  0  0  0  0  0  0  0  0
   -2.7855    2.0207    1.4560 H   0  0  0  0  0  0  0  0  0  0  0  0
   -0.6885   -3.0703    1.4015 H   0  0  0  0  0  0  0  0  0  0  0  0
   -2.3296   -3.1250    0.5200 H   0  0  0  0  0  0  0  0  0  0  0  0
   -2.8464   -1.5126   -1.0450 H   0  0  0  0  0  0  0  0  0  0  0  0
    1.4337   -3.0061   -0.1586 H   0  0  0  0  0  0  0  0  0  0  0  0
  1  2  1  0  0  0  0
  2  3  4  0  0  0  0
  3  4  4  0  0  0  0
  4  5  1  0  0  0  0
  2  6  1  0  0  0  0
  5  6  4  0  0  0  0
  6  7  1  0  0  0  0
  7  8  2  0  0  0  0
  7  9  4  0  0  0  0
  9 10  1  0  0  0  0
 11 12  2  0  0  0  0
  5 13  1  0  0  0  0
 11 13  1  0  0  0  0
 13 14  4  0  0  0  0
  1 15  1  0  0  0  0
  1 16  1  0  0  0  0
  1 17  1  0  0  0  0
  3 18  1  0  0  0  0
 10 19  1  0  0  0  0
 10 20  1  0  0  0  0
 10 21  1  0  0  0  0
 14 22  1  0  0  0  0
 14 23  1  0  0  0  0
 11 24  1  0  0  0  0
  4 25  1  0  0  0  0
M  CHG  1   1   1
M  END
