 xtb: 6.6.1 (8d0f1dd)
          06052420003D

 25 25  0     0  0            999 V2000
    3.9076    3.0748    0.0632 C   0  0  0  0  0  0  0  0  0  0  0  0
    2.2067   -0.7944   -0.0307 N   0  0  0  0  0  0  0  0  0  0  0  0
    2.2146   -2.0931   -0.0229 C   0  0  0  0  0  0  0  0  0  0  0  0
    0.9489   -2.6182   -0.0140 N   0  0  0  0  0  0  0  0  0  0  0  0
    0.0994   -1.5607   -0.0162 C   0  0  0  0  0  0  0  0  0  0  0  0
    0.9065   -0.4147   -0.0272 C   0  0  0  0  0  0  0  0  0  0  0  0
    0.3161    0.9038   -0.0253 C   0  0  0  0  0  0  0  0  0  0  0  0
    0.9146    1.9566   -0.0330 O   0  0  0  0  0  0  0  0  0  0  0  0
   -1.0787    0.8507   -0.0093 N   0  0  0  0  0  0  0  0  0  0  0  0
   -1.8029    2.1112    0.0040 C   0  0  0  0  0  0  0  0  0  0  0  0
   -1.8839   -0.2759   -0.0068 C   0  0  0  0  0  0  0  0  0  0  0  0
   -3.0836   -0.1996   -0.0009 O   0  0  0  0  0  0  0  0  0  0  0  0
   -1.2435   -1.5263   -0.0092 N   0  0  0  0  0  0  0  0  0  0  0  0
   -2.0497   -2.7283   -0.0064 C   0  0  0  0  0  0  0  0  0  0  0  0
    4.3568    3.3555    0.9953 H   0  0  0  0  0  0  0  0  0  0  0  0
    4.5024    3.0772   -0.8333 H   0  0  0  0  0  0  0  0  0  0  0  0
    2.8685    2.7964    0.0250 H   0  0  0  0  0  0  0  0  0  0  0  0
    3.1006   -2.6956   -0.0233 H   0  0  0  0  0  0  0  0  0  0  0  0
   -1.0778    2.9213    0.0007 H   0  0  0  0  0  0  0  0  0  0  0  0
   -2.4494    2.1780   -0.8715 H   0  0  0  0  0  0  0  0  0  0  0  0
   -2.4309    2.1678    0.8937 H   0  0  0  0  0  0  0  0  0  0  0  0
   -1.8399   -3.3246    0.8826 H   0  0  0  0  0  0  0  0  0  0  0  0
   -1.8545   -3.3187   -0.9027 H   0  0  0  0  0  0  0  0  0  0  0  0
   -3.0966   -2.4268    0.0030 H   0  0  0  0  0  0  0  0  0  0  0  0
    0.7091   -3.5983   -0.0037 H   0  0  0  0  0  0  0  0  0  0  0  0
  2  3  2  0  0  0  0
  3  4  4  0  0  0  0
  4  5  4  0  0  0  0
  2  6  4  0  0  0  0
  5  6  4  0  0  0  0
  6  7  1  0  0  0  0
  7  8  2  0  0  0  0
  7  9  1  0  0  0  0
  9 10  1  0  0  0  0
  9 11  1  0  0  0  0
 11 12  2  0  0  0  0
  5 13  4  0  0  0  0
 11 13  1  0  0  0  0
 13 14  1  0  0  0  0
  1 15  1  0  0  0  0
  1 16  1  0  0  0  0
  1 17  1  0  0  0  0
  3 18  1  0  0  0  0
 10 19  1  0  0  0  0
 10 20  1  0  0  0  0
 10 21  1  0  0  0  0
 14 22  1  0  0  0  0
 14 23  1  0  0  0  0
 14 24  1  0  0  0  0
  4 25  1  0  0  0  0
M  CHG  1   1   1
M  END
