          71
 
N             -1.71496734        2.66087625        2.49794130
C             -1.70984121        2.09532018        1.38455139
C             -2.88695788        2.02335972        0.45030570
C             -3.43030642        0.60161537        0.42042776
C             -4.40886041        0.25446776       -0.50560493
C             -4.92892666       -1.03458558       -0.55675377
O             -5.88176804       -1.44719679       -1.43487189
C             -6.66444063       -0.64602635       -2.10837777
C             -4.45499108       -2.03118981        0.33729116
O             -5.01308785       -3.24746688        0.20750834
C             -4.64750155       -4.27166525        1.10682821
C             -3.48639812       -1.67225480        1.26382881
C             -2.98880163       -0.37571405        1.30504827
C             -2.34864293        2.40640569       -0.95303730
C             -1.46563570        1.33250843       -1.61522518
C             -0.12563510        1.20571317       -0.99865658
N              0.48456392        0.06216706       -0.70331089
C              1.86997297        0.05883520       -0.29683256
C              2.80712406       -0.33278789       -1.45512380
C              4.23793110       -0.23627549       -1.00538930
C              4.93172844        0.95786166       -1.11421707
C              6.24243443        1.05985496       -0.67477180
C              6.88540522       -0.03292892       -0.11112916
O              8.15160610       -0.04986945        0.34415500
C              8.93629198        1.11576575        0.23724453
C              6.17921562       -1.26174403        0.01042881
O              6.87763177       -2.27151786        0.56666645
C              6.27468309       -3.53650035        0.69823786
C              4.86888343       -1.33891311       -0.43448926
C             -0.17313598       -1.21517651       -0.83675971
C             -4.04689431        2.98348436        0.85263767
C             -4.68052249        2.56862473        2.17846826
C             -3.61721636        4.44639848        0.92057609
H             -4.76581244        0.98632953       -1.21198845
H             -6.67082155        0.42203475       -1.97577326
H             -7.33228406       -1.12903781       -2.79915500
H             -4.86355558       -3.98974665        2.14090137
H             -5.25508138       -5.13117469        0.83140981
H             -3.58869731       -4.52955254        1.00835130
H             -3.11981499       -2.39648944        1.97321651
H             -2.25675532       -0.12788057        2.05821172
H             -3.19420574        2.59954907       -1.61217362
H             -1.77881502        3.33269579       -0.87134061
H             -1.99403577        0.38097445       -1.63155123
H             -1.31781667        1.64930044       -2.65566157
H             -0.81484405        1.61386992        0.94190376
H              0.47149535        2.10265839       -0.92251889
H              2.00012068       -0.64449144        0.53008605
H              2.14477860        1.05472914        0.05687431
H              2.63295336        0.34637030       -2.29137937
H              2.58145640       -1.34855546       -1.78165296
H              4.45722212        1.82024287       -1.55731871
H              6.75896223        1.99954151       -0.78087566
H              8.50876087        1.94096141        0.81489952
H              9.05654658        1.42288018       -0.80592961
H              9.90802030        0.85214749        0.65015914
H              7.03390965       -4.17711553        1.14255545
H              5.40267360       -3.49874043        1.35922529
H              5.98104608       -3.94449516       -0.27391425
H              4.32701893       -2.26830378       -0.35422797
H             -0.35783357       -1.45784205       -1.88548100
H             -1.12718788       -1.21027501       -0.30378541
H              0.45831618       -1.98918150       -0.40813585
H             -4.81026210        2.89444228        0.07137846
H             -3.95535926        2.65723917        2.98068992
H             -5.04099569        1.54346089        2.13942857
H             -5.52277954        3.21907586        2.39845458
H             -2.83491572        4.57913504        1.66150558
H             -3.26758807        4.81218657       -0.04121528
H             -4.46903516        5.05331183        1.21595952
H             -0.85030448        2.66860145        3.02997770
