          24
 
C              3.23717619        1.13035947        0.01625434
N              2.28186320        0.05505406        0.00784760
C              2.54706858       -1.24820768        0.01539043
N              1.39097328       -1.95203772        0.01925580
C              0.35637327       -1.06503346        0.01515810
C              0.91192585        0.20856488        0.00997430
C              0.11306811        1.39669051       -0.00368721
O              0.49296618        2.54586315       -0.02994253
N             -1.28974699        1.08084497        0.01970552
C             -2.14890323        2.11100836        0.05186154
C             -1.85790503       -0.22392063        0.00540522
O             -3.04718899       -0.38418388       -0.00608326
N             -0.97178110       -1.29846818        0.00694216
C             -1.50841834       -2.64803808       -0.00150129
H              3.70355247        1.21548372        0.99916953
H              4.01230508        0.95135720       -0.72697374
H              2.71861128        2.06227675       -0.20532683
H              3.52650762       -1.68286976        0.01501361
H             -1.73699459        3.10200585        0.06380325
H             -3.20146384        1.90396978        0.06717193
H             -1.21749355       -3.17873072        0.90512042
H             -1.16374991       -3.18710325       -0.88342622
H             -2.59444906       -2.57091463       -0.03371347
H              1.32214751       -2.95954654        0.02354132
