          23
 
C              3.70470230        1.32623761       -0.00125251
N              2.42472368        0.79552983        0.00010235
N              1.21548383       -1.53790872       -0.00136706
C              0.14235757       -0.85744838       -0.00030352
C              0.10750272        0.58316393        0.00025273
C              1.28088268        1.46254087       -0.00031765
O              1.16949531        2.69450999       -0.00118837
N             -1.17988398        0.97777943        0.00150483
C             -1.70635797        2.30848839        0.00186200
C             -2.01900850       -0.15298623        0.00152430
O             -3.21769895       -0.13805563        0.00234984
N             -1.18725030       -1.25770898        0.00045756
C             -1.68598687       -2.60421399       -0.00048269
H              4.23649109        1.00064110        0.90277834
H              4.26133520        0.92713415       -0.85907622
H              3.70912273        2.42649502       -0.04537404
H             -0.87991922        3.02295135        0.00622857
H             -2.33070782        2.45979204       -0.88314699
H             -2.33799162        2.45610975        0.88223247
H             -1.34167446       -3.14590659        0.88392521
H             -1.34612806       -3.14299032       -0.88842741
H             -2.77600814       -2.55858006        0.00223060
H              1.16468900       -2.62625029       -0.00147253
