           5
 
C              3.48674076        2.33163177        0.15236415
N              3.83973841        1.41847805       -0.61118308
H              3.28448040        2.09715107        1.18971160
H              4.04692376        1.61668820       -1.58454662
H              3.36547686        3.38012128       -0.12244847
