 xtb: 6.6.1 (8d0f1dd)
          04062411143D

 72 73  0     0  0            999 V2000
   -1.0746    1.4958    1.2748 N   0  0  0  0  0  0  0  0  0  0  0  0
   -1.3090    1.1205    0.1045 C   0  0  0  0  0  0  0  0  0  0  0  0
   -2.6683    1.1702   -0.5495 C   0  0  0  0  0  0  0  0  0  0  0  0
   -3.5678    0.0663    0.0006 C   0  0  0  0  0  0  0  0  0  0  0  0
   -4.7263   -0.2752   -0.6981 C   0  0  0  0  0  0  0  0  0  0  0  0
   -5.5883   -1.2578   -0.2383 C   0  0  0  0  0  0  0  0  0  0  0  0
   -6.7265   -1.6427   -0.8482 O   0  0  0  0  0  0  0  0  0  0  0  0
   -7.1263   -1.0059   -2.0386 C   0  0  0  0  0  0  0  0  0  0  0  0
   -5.2928   -1.9379    0.9748 C   0  0  0  0  0  0  0  0  0  0  0  0
   -6.1742   -2.8880    1.3378 O   0  0  0  0  0  0  0  0  0  0  0  0
   -5.9824   -3.5740    2.5533 C   0  0  0  0  0  0  0  0  0  0  0  0
   -4.1586   -1.5684    1.6808 C   0  0  0  0  0  0  0  0  0  0  0  0
   -3.3135   -0.5776    1.2023 C   0  0  0  0  0  0  0  0  0  0  0  0
   -2.3406    0.9030   -2.0359 C   0  0  0  0  0  0  0  0  0  0  0  0
   -1.1472   -0.0466   -2.0069 C   0  0  0  0  0  0  0  0  0  0  0  0
   -0.2817    0.5429   -0.8925 C   0  0  0  0  0  0  0  0  0  0  0  0
    0.6320   -0.3688   -0.2539 N   0  0  0  0  0  0  0  0  0  0  0  0
    1.8974   -0.0689    0.0041 C   0  0  0  0  0  0  0  0  0  0  0  0
    2.6121    1.1482   -0.4543 C   0  0  0  0  0  0  0  0  0  0  0  0
    4.0974    1.0275   -0.2210 C   0  0  0  0  0  0  0  0  0  0  0  0
    4.7744    1.9277    0.5820 C   0  0  0  0  0  0  0  0  0  0  0  0
    6.1426    1.8096    0.7811 C   0  0  0  0  0  0  0  0  0  0  0  0
    6.8584    0.7837    0.1822 C   0  0  0  0  0  0  0  0  0  0  0  0
    8.1806    0.5708    0.3038 O   0  0  0  0  0  0  0  0  0  0  0  0
    8.9506    1.4465    1.0958 C   0  0  0  0  0  0  0  0  0  0  0  0
    6.1694   -0.1466   -0.6460 C   0  0  0  0  0  0  0  0  0  0  0  0
    6.9416   -1.1074   -1.1908 O   0  0  0  0  0  0  0  0  0  0  0  0
    6.3592   -2.0585   -2.0488 C   0  0  0  0  0  0  0  0  0  0  0  0
    4.8039   -0.0080   -0.8322 C   0  0  0  0  0  0  0  0  0  0  0  0
    0.0894   -1.6297    0.2004 C   0  0  0  0  0  0  0  0  0  0  0  0
   -3.3775    2.5423   -0.3444 C   0  0  0  0  0  0  0  0  0  0  0  0
   -3.9737    2.6695    1.0546 C   0  0  0  0  0  0  0  0  0  0  0  0
   -2.4457    3.7270   -0.5938 C   0  0  0  0  0  0  0  0  0  0  0  0
   -4.9803    0.2556   -1.6006 H   0  0  0  0  0  0  0  0  0  0  0  0
   -7.3039    0.0626   -1.8822 H   0  0  0  0  0  0  0  0  0  0  0  0
   -8.0591   -1.4865   -2.3268 H   0  0  0  0  0  0  0  0  0  0  0  0
   -6.3888   -1.1431   -2.8358 H   0  0  0  0  0  0  0  0  0  0  0  0
   -6.0084   -2.8900    3.4068 H   0  0  0  0  0  0  0  0  0  0  0  0
   -6.8116   -4.2749    2.6271 H   0  0  0  0  0  0  0  0  0  0  0  0
   -5.0385   -4.1278    2.5570 H   0  0  0  0  0  0  0  0  0  0  0  0
   -3.9257   -2.0409    2.6211 H   0  0  0  0  0  0  0  0  0  0  0  0
   -2.4747   -0.2822    1.8116 H   0  0  0  0  0  0  0  0  0  0  0  0
   -3.1748    0.4725   -2.5812 H   0  0  0  0  0  0  0  0  0  0  0  0
   -2.0620    1.8338   -2.5294 H   0  0  0  0  0  0  0  0  0  0  0  0
   -1.4871   -1.0488   -1.7496 H   0  0  0  0  0  0  0  0  0  0  0  0
   -0.6215   -0.0893   -2.9598 H   0  0  0  0  0  0  0  0  0  0  0  0
    0.5612   -0.5199    3.2859 H   0  0  0  0  0  0  0  0  0  0  0  0
    0.2836    1.3923   -1.2874 H   0  0  0  0  0  0  0  0  0  0  0  0
    2.4568   -0.7922    0.5761 H   0  0  0  0  0  0  0  0  0  0  0  0
    1.1578   -0.3302    3.7487 H   0  0  0  0  0  0  0  0  0  0  0  0
    2.2389    2.0381    0.0671 H   0  0  0  0  0  0  0  0  0  0  0  0
    2.4326    1.3101   -1.5251 H   0  0  0  0  0  0  0  0  0  0  0  0
    4.2434    2.7369    1.0595 H   0  0  0  0  0  0  0  0  0  0  0  0
    6.6437    2.5289    1.4075 H   0  0  0  0  0  0  0  0  0  0  0  0
    8.6123    1.4486    2.1361 H   0  0  0  0  0  0  0  0  0  0  0  0
    8.9280    2.4666    0.7011 H   0  0  0  0  0  0  0  0  0  0  0  0
    9.9681    1.0635    1.0479 H   0  0  0  0  0  0  0  0  0  0  0  0
    7.1755   -2.7052   -2.3645 H   0  0  0  0  0  0  0  0  0  0  0  0
    5.6036   -2.6581   -1.5309 H   0  0  0  0  0  0  0  0  0  0  0  0
    5.9121   -1.5853   -2.9285 H   0  0  0  0  0  0  0  0  0  0  0  0
    4.2714   -0.7014   -1.4647 H   0  0  0  0  0  0  0  0  0  0  0  0
    0.1313   -2.3739   -0.5987 H   0  0  0  0  0  0  0  0  0  0  0  0
   -0.9490   -1.5012    0.5067 H   0  0  0  0  0  0  0  0  0  0  0  0
    0.6649   -2.0042    1.0453 H   0  0  0  0  0  0  0  0  0  0  0  0
   -4.1895    2.5772   -1.0788 H   0  0  0  0  0  0  0  0  0  0  0  0
   -3.1974    2.5207    1.7994 H   0  0  0  0  0  0  0  0  0  0  0  0
   -4.7624    1.9406    1.2194 H   0  0  0  0  0  0  0  0  0  0  0  0
   -4.3946    3.6633    1.1824 H   0  0  0  0  0  0  0  0  0  0  0  0
   -1.7145    3.8048    0.2064 H   0  0  0  0  0  0  0  0  0  0  0  0
   -1.9208    3.6523   -1.5432 H   0  0  0  0  0  0  0  0  0  0  0  0
   -3.0278    4.6445   -0.6099 H   0  0  0  0  0  0  0  0  0  0  0  0
   -0.1202    1.4169    1.6156 H   0  0  0  0  0  0  0  0  0  0  0  0
  1  2  2  0  0  0  0
  2  3  1  0  0  0  0
  3  4  1  0  0  0  0
  4  5  4  0  0  0  0
  5  6  4  0  0  0  0
  6  7  1  0  0  0  0
  7  8  1  0  0  0  0
  6  9  4  0  0  0  0
  9 10  1  0  0  0  0
 10 11  1  0  0  0  0
  9 12  4  0  0  0  0
  4 13  4  0  0  0  0
 12 13  4  0  0  0  0
  3 14  1  0  0  0  0
 14 15  1  0  0  0  0
  2 16  1  0  0  0  0
 15 16  1  0  0  0  0
 16 17  1  0  0  0  0
 17 18  4  0  0  0  0
 18 19  1  0  0  0  0
 19 20  1  0  0  0  0
 20 21  4  0  0  0  0
 21 22  4  0  0  0  0
 22 23  4  0  0  0  0
 23 24  1  0  0  0  0
 24 25  1  0  0  0  0
 23 26  4  0  0  0  0
 26 27  1  0  0  0  0
 27 28  1  0  0  0  0
 20 29  4  0  0  0  0
 26 29  4  0  0  0  0
 17 30  1  0  0  0  0
  3 31  1  0  0  0  0
 31 32  1  0  0  0  0
 31 33  1  0  0  0  0
  5 34  1  0  0  0  0
  8 35  1  0  0  0  0
  8 36  1  0  0  0  0
  8 37  1  0  0  0  0
 11 38  1  0  0  0  0
 11 39  1  0  0  0  0
 11 40  1  0  0  0  0
 12 41  1  0  0  0  0
 13 42  1  0  0  0  0
 14 43  1  0  0  0  0
 14 44  1  0  0  0  0
 15 45  1  0  0  0  0
 15 46  1  0  0  0  0
 16 48  1  0  0  0  0
 18 49  1  0  0  0  0
 47 50  1  0  0  0  0
 19 51  1  0  0  0  0
 19 52  1  0  0  0  0
 21 53  1  0  0  0  0
 22 54  1  0  0  0  0
 25 55  1  0  0  0  0
 25 56  1  0  0  0  0
 25 57  1  0  0  0  0
 28 58  1  0  0  0  0
 28 59  1  0  0  0  0
 28 60  1  0  0  0  0
 29 61  1  0  0  0  0
 30 62  1  0  0  0  0
 30 63  1  0  0  0  0
 30 64  1  0  0  0  0
 31 65  1  0  0  0  0
 32 66  1  0  0  0  0
 32 67  1  0  0  0  0
 32 68  1  0  0  0  0
 33 69  1  0  0  0  0
 33 70  1  0  0  0  0
 33 71  1  0  0  0  0
  1 72  1  0  0  0  0
M  CHG  1   1   1
M  END
