          21
 
N              2.25144114       -0.31609091       -0.01212690
C              2.38632367       -1.60788544       -0.00950439
N              1.17969630       -2.25584711       -0.00619804
C              0.22922207       -1.28815940       -0.00581237
C              0.91968241       -0.06800283       -0.01005481
C              0.20111079        1.18582360       -0.01396457
O              0.69281711        2.29193925       -0.02913107
N             -1.18237795        0.99633234        0.00192765
C             -2.02433696        2.18174268        0.01101587
C             -1.87171531       -0.20401313        0.00633780
O             -3.07328742       -0.24777208        0.01643160
N             -1.11085352       -1.38562883       -0.00141316
C             -1.79654381       -2.65988162       -0.00548954
H              3.32773742       -2.12083030       -0.01127374
H             -1.37820301        3.05597729        0.02354417
H             -2.66048467        2.19428561       -0.87451331
H             -2.66861925        2.17250281        0.89060980
H             -1.53284976       -3.23729901        0.88157459
H             -1.54300747       -3.22511591       -0.90343272
H             -2.86782058       -2.46153780        0.00207537
H              1.03944997       -3.25534575       -0.00430330
