          23
 
C              3.46672007        1.03941593        0.05728955
N              2.41782285        0.05471158        0.01654212
C              2.56770190       -1.26654596        0.00572745
N              1.36386915       -1.86848046       -0.02171868
C              0.40334927       -0.89032938       -0.03015200
C              1.06996767        0.32683534       -0.00677042
C              0.36741491        1.58917153       -0.01642501
O              0.86066928        2.69428787        0.00449155
N             -1.03632533        1.36646220       -0.06067799
C             -1.86618003        2.56363874       -0.08666605
C             -1.66548791        0.21193344       -0.07395793
N             -0.96676204       -0.97802292       -0.04949802
C             -1.63541282       -2.13269490       -0.04633997
H              4.04539186        0.93671388        0.97580449
H              4.13565664        0.91614464       -0.79441989
H              3.01826193        2.03183848        0.02528413
H              3.50829665       -1.78200082        0.01772835
H             -1.21879464        3.43387776       -0.17619266
H             -2.55197825        2.51687108       -0.92928965
H             -2.44631031        2.63188661        0.83199304
H             -1.09870994       -3.06302882       -0.02836738
H             -2.72135292       -2.11993749       -0.02752207
H              1.21327703       -2.86781005       -0.03829159
