          24
 
C              3.14832007        1.08342136        0.00102661
N              2.28066386        0.07947987       -0.00090393
C              2.54186448       -1.24923304       -0.01018047
N              1.37503361       -1.95060394       -0.00838448
C              0.34466178       -1.06334745        0.00112150
C              0.88977529        0.20921721        0.00625485
C              0.06992528        1.39823903        0.00700001
O              0.47165045        2.53682194        0.01639607
N             -1.28842506        1.07185271       -0.00806222
C             -2.24130892        2.17240188       -0.01325037
C             -1.85816617       -0.18695000       -0.00130964
O             -3.04488628       -0.35652621       -0.00004885
N             -0.97760757       -1.29289605        0.00078924
C             -1.53263298       -2.63078500        0.01772124
H              4.22585749        0.89066534       -0.01523522
H              2.76551416        2.08908625        0.00565104
H              3.51817003       -1.68892702       -0.01759906
H             -1.68261651        3.10485503       -0.00484130
H             -2.86888674        2.11420175       -0.90278998
H             -2.88594771        2.10797250        0.86336924
H             -1.23278451       -3.15738430        0.92401763
H             -1.21516041       -3.18826477       -0.86362363
H             -2.61807355       -2.53514737        0.00548247
H              1.30895627       -2.95793554       -0.01284659
