 xtb: 6.6.1 (8d0f1dd)
          06052419583D

 25 26  0     0  0            999 V2000
    3.2951    1.2892    0.0402 C   0  0  0  0  0  0  0  0  0  0  0  0
    2.3593    0.2093    0.1681 N   0  0  0  0  0  0  0  0  0  0  0  0
    2.6339   -1.1031    0.3546 C   0  0  0  0  0  0  0  0  0  0  0  0
    1.5531   -1.8490    0.4076 N   0  0  0  0  0  0  0  0  0  0  0  0
    0.5210   -1.0034    0.2478 C   0  0  0  0  0  0  0  0  0  0  0  0
    0.9972    0.3014    0.0874 C   0  0  0  0  0  0  0  0  0  0  0  0
    0.1207    1.4318   -0.0537 C   0  0  0  0  0  0  0  0  0  0  0  0
    0.4562    2.5923   -0.1634 O   0  0  0  0  0  0  0  0  0  0  0  0
   -1.2276    1.0422   -0.0517 N   0  0  0  0  0  0  0  0  0  0  0  0
   -2.2264    2.0925   -0.1443 C   0  0  0  0  0  0  0  0  0  0  0  0
   -1.7340   -0.2362    0.0298 C   0  0  0  0  0  0  0  0  0  0  0  0
   -2.9134   -0.4698   -0.0352 O   0  0  0  0  0  0  0  0  0  0  0  0
   -0.8098   -1.3046    0.2272 N   0  0  0  0  0  0  0  0  0  0  0  0
   -1.2787   -2.5753    0.3716 C   0  0  0  0  0  0  0  0  0  0  0  0
    3.8889    1.3884    0.9502 H   0  0  0  0  0  0  0  0  0  0  0  0
    3.9724    1.1073   -0.7964 H   0  0  0  0  0  0  0  0  0  0  0  0
    2.7469    2.2154   -0.1314 H   0  0  0  0  0  0  0  0  0  0  0  0
    3.6251   -1.4978    0.4504 H   0  0  0  0  0  0  0  0  0  0  0  0
   -1.7118    3.0523   -0.1412 H   0  0  0  0  0  0  0  0  0  0  0  0
   -2.8091    1.9827   -1.0600 H   0  0  0  0  0  0  0  0  0  0  0  0
   -2.9109    2.0260    0.7026 H   0  0  0  0  0  0  0  0  0  0  0  0
   -0.6075   -3.2545    0.8831 H   0  0  0  0  0  0  0  0  0  0  0  0
   -1.2419   -3.2882   -1.0171 H   0  0  0  0  0  0  0  0  0  0  0  0
   -2.3444   -2.6455    0.5341 H   0  0  0  0  0  0  0  0  0  0  0  0
   -1.1939   -3.6852   -1.8290 H   0  0  0  0  0  0  0  0  0  0  0  0
  1  2  1  0  0  0  0
  2  3  4  0  0  0  0
  3  4  4  0  0  0  0
  4  5  4  0  0  0  0
  2  6  1  0  0  0  0
  5  6  4  0  0  0  0
  6  7  1  0  0  0  0
  7  8  2  0  0  0  0
  7  9  1  0  0  0  0
  9 10  1  0  0  0  0
  9 11  1  0  0  0  0
 11 12  2  0  0  0  0
  5 13  1  0  0  0  0
 11 13  1  0  0  0  0
 13 14  4  0  0  0  0
  1 15  1  0  0  0  0
  1 16  1  0  0  0  0
  1 17  1  0  0  0  0
  3 18  1  0  0  0  0
 10 19  1  0  0  0  0
 10 20  1  0  0  0  0
 10 21  1  0  0  0  0
 14 22  1  0  0  0  0
 14 23  1  0  0  0  0
 14 24  1  0  0  0  0
 23 25  1  0  0  0  0
M  CHG  1   1   1
M  END
