          23
 
C              3.30833545        0.83565584        0.06573112
N              2.34044231       -0.22478933        0.02587381
C              2.56111090       -1.53524273       -0.00566039
N              1.38502622       -2.20717013       -0.02273882
C              0.38059474       -1.29228514        0.00173988
C              0.97754025       -0.01836045        0.03235273
C              0.23344407        1.14556509        0.03639453
N             -1.11399491        0.98096215        0.02503519
C             -1.90141313        2.04536523        0.00684890
C             -1.77918805       -0.31999348        0.02635027
O             -2.97385530       -0.39257141        0.04473101
N             -0.96147097       -1.44178313       -0.00083481
C             -1.57809008       -2.75717313       -0.03848949
H              3.65904716        0.99391680        1.08763728
H              4.16039162        0.59796704       -0.56910535
H              2.82589070        1.75028685       -0.27789343
H              3.52486959       -2.00516213       -0.01991956
H             -2.96953854        1.90764963       -0.00381182
H             -1.40405717        3.03513085       -0.01598009
H             -1.24882821       -3.35341068        0.81273948
H             -1.32909668       -3.26436810       -0.97154763
H             -2.65740312       -2.62500283        0.01569498
H              1.29809017       -3.21441164       -0.04749990
