 xtb: 6.6.1 (8d0f1dd)
          04062411173D

 72 73  0     0  0            999 V2000
   -1.8404    2.7816    2.3426 N   0  0  0  0  0  0  0  0  0  0  0  0
   -1.8700    1.9604    1.4018 C   0  0  0  0  0  0  0  0  0  0  0  0
   -3.0001    1.8340    0.4174 C   0  0  0  0  0  0  0  0  0  0  0  0
   -3.4825    0.3930    0.3969 C   0  0  0  0  0  0  0  0  0  0  0  0
   -4.3047   -0.0589   -0.6373 C   0  0  0  0  0  0  0  0  0  0  0  0
   -4.7874   -1.3569   -0.6627 C   0  0  0  0  0  0  0  0  0  0  0  0
   -5.5849   -1.8739   -1.6222 O   0  0  0  0  0  0  0  0  0  0  0  0
   -6.0674   -1.0339   -2.6436 C   0  0  0  0  0  0  0  0  0  0  0  0
   -4.4416   -2.2535    0.3835 C   0  0  0  0  0  0  0  0  0  0  0  0
   -4.9530   -3.4973    0.2769 O   0  0  0  0  0  0  0  0  0  0  0  0
   -4.7421   -4.4143    1.3252 C   0  0  0  0  0  0  0  0  0  0  0  0
   -3.6347   -1.7952    1.4124 C   0  0  0  0  0  0  0  0  0  0  0  0
   -3.1661   -0.4885    1.4188 C   0  0  0  0  0  0  0  0  0  0  0  0
   -2.4004    2.2403   -0.9560 C   0  0  0  0  0  0  0  0  0  0  0  0
   -1.4955    1.1817   -1.6054 C   0  0  0  0  0  0  0  0  0  0  0  0
   -0.2074    0.9933   -0.9047 C   0  0  0  0  0  0  0  0  0  0  0  0
    0.4117   -0.1717   -0.7685 N   0  0  0  0  0  0  0  0  0  0  0  0
    1.7049   -0.2100   -0.1146 C   0  0  0  0  0  0  0  0  0  0  0  0
    2.7812    0.3981   -0.9742 C   0  0  0  0  0  0  0  0  0  0  0  0
    4.1127    0.2409   -0.8123 C   0  0  0  0  0  0  0  0  0  0  0  0
    5.0412    0.9741   -1.7449 C   0  0  0  0  0  0  0  0  0  0  0  0
    6.4824    0.9188   -1.3733 C   0  0  0  0  0  0  0  0  0  0  0  0
    6.9546    0.1527   -0.3721 C   0  0  0  0  0  0  0  0  0  0  0  0
    8.2375    0.0441    0.0274 O   0  0  0  0  0  0  0  0  0  0  0  0
    9.2121    0.8342   -0.6133 C   0  0  0  0  0  0  0  0  0  0  0  0
    6.0323   -0.6774    0.4036 C   0  0  0  0  0  0  0  0  0  0  0  0
    6.6464   -1.4612    1.2973 O   0  0  0  0  0  0  0  0  0  0  0  0
    5.8883   -2.3562    2.0771 C   0  0  0  0  0  0  0  0  0  0  0  0
    4.6889   -0.5989    0.1920 C   0  0  0  0  0  0  0  0  0  0  0  0
   -0.1439   -1.3933   -1.2970 C   0  0  0  0  0  0  0  0  0  0  0  0
   -4.2211    2.7444    0.7429 C   0  0  0  0  0  0  0  0  0  0  0  0
   -4.8293    2.3978    2.0997 C   0  0  0  0  0  0  0  0  0  0  0  0
   -3.8967    4.2352    0.6923 C   0  0  0  0  0  0  0  0  0  0  0  0
   -4.5844    0.6211   -1.4251 H   0  0  0  0  0  0  0  0  0  0  0  0
   -6.6383   -0.1939   -2.2365 H   0  0  0  0  0  0  0  0  0  0  0  0
   -6.7249   -1.6568   -3.2468 H   0  0  0  0  0  0  0  0  0  0  0  0
   -5.2546   -0.6548   -3.2721 H   0  0  0  0  0  0  0  0  0  0  0  0
   -5.1393   -4.0377    2.2725 H   0  0  0  0  0  0  0  0  0  0  0  0
   -5.2831   -5.3141    1.0394 H   0  0  0  0  0  0  0  0  0  0  0  0
   -3.6803   -4.6530    1.4435 H   0  0  0  0  0  0  0  0  0  0  0  0
   -3.3739   -2.4458    2.2313 H   0  0  0  0  0  0  0  0  0  0  0  0
   -2.5699   -0.1596    2.2558 H   0  0  0  0  0  0  0  0  0  0  0  0
   -3.2197    2.4493   -1.6436 H   0  0  0  0  0  0  0  0  0  0  0  0
   -1.8360    3.1645   -0.8270 H   0  0  0  0  0  0  0  0  0  0  0  0
   -2.0380    0.2404   -1.6862 H   0  0  0  0  0  0  0  0  0  0  0  0
   -1.2803    1.5294   -2.6251 H   0  0  0  0  0  0  0  0  0  0  0  0
   -1.0398    1.2702    1.1590 H   0  0  0  0  0  0  0  0  0  0  0  0
    0.3297    1.8687   -0.5728 H   0  0  0  0  0  0  0  0  0  0  0  0
    1.9388   -1.2476    0.1293 H   0  0  0  0  0  0  0  0  0  0  0  0
    1.6362    0.3443    0.8328 H   0  0  0  0  0  0  0  0  0  0  0  0
    2.4218    1.0474   -1.7588 H   0  0  0  0  0  0  0  0  0  0  0  0
    4.9246    0.5692   -2.7572 H   0  0  0  0  0  0  0  0  0  0  0  0
    4.7371    2.0251   -1.8081 H   0  0  0  0  0  0  0  0  0  0  0  0
    7.1413    1.5238   -1.9746 H   0  0  0  0  0  0  0  0  0  0  0  0
    8.9817    1.9000   -0.5219 H   0  0  0  0  0  0  0  0  0  0  0  0
    9.3075    0.5714   -1.6712 H   0  0  0  0  0  0  0  0  0  0  0  0
   10.1480    0.6198   -0.1015 H   0  0  0  0  0  0  0  0  0  0  0  0
    6.6103   -2.9073    2.6765 H   0  0  0  0  0  0  0  0  0  0  0  0
    5.1980   -1.8246    2.7390 H   0  0  0  0  0  0  0  0  0  0  0  0
    5.3289   -3.0555    1.4480 H   0  0  0  0  0  0  0  0  0  0  0  0
    4.0210   -1.1829    0.8040 H   0  0  0  0  0  0  0  0  0  0  0  0
   -0.3836   -1.2836   -2.3558 H   0  0  0  0  0  0  0  0  0  0  0  0
   -1.0549   -1.6701   -0.7584 H   0  0  0  0  0  0  0  0  0  0  0  0
    0.5792   -2.1978   -1.1939 H   0  0  0  0  0  0  0  0  0  0  0  0
   -4.9735    2.5322   -0.0261 H   0  0  0  0  0  0  0  0  0  0  0  0
   -4.1281    2.6340    2.8939 H   0  0  0  0  0  0  0  0  0  0  0  0
   -5.0891    1.3435    2.1571 H   0  0  0  0  0  0  0  0  0  0  0  0
   -5.7335    2.9808    2.2535 H   0  0  0  0  0  0  0  0  0  0  0  0
   -3.1051    4.4705    1.3964 H   0  0  0  0  0  0  0  0  0  0  0  0
   -3.6005    4.5547   -0.3032 H   0  0  0  0  0  0  0  0  0  0  0  0
   -4.7818    4.8006    0.9722 H   0  0  0  0  0  0  0  0  0  0  0  0
   -1.0105    2.8050    2.9270 H   0  0  0  0  0  0  0  0  0  0  0  0
  1  2  2  0  0  0  0
  2  3  1  0  0  0  0
  3  4  1  0  0  0  0
  4  5  4  0  0  0  0
  5  6  4  0  0  0  0
  6  7  1  0  0  0  0
  7  8  1  0  0  0  0
  6  9  4  0  0  0  0
  9 10  1  0  0  0  0
 10 11  1  0  0  0  0
  9 12  4  0  0  0  0
  4 13  4  0  0  0  0
 12 13  4  0  0  0  0
  3 14  1  0  0  0  0
 14 15  1  0  0  0  0
 15 16  1  0  0  0  0
 16 17  4  0  0  0  0
 17 18  1  0  0  0  0
 18 19  1  0  0  0  0
 19 20  2  0  0  0  0
 20 21  1  0  0  0  0
 21 22  1  0  0  0  0
 22 23  2  0  0  0  0
 23 24  1  0  0  0  0
 24 25  1  0  0  0  0
 23 26  1  0  0  0  0
 26 27  1  0  0  0  0
 27 28  1  0  0  0  0
 20 29  1  0  0  0  0
 26 29  2  0  0  0  0
 17 30  1  0  0  0  0
  3 31  1  0  0  0  0
 31 32  1  0  0  0  0
 31 33  1  0  0  0  0
  5 34  1  0  0  0  0
  8 35  1  0  0  0  0
  8 36  1  0  0  0  0
  8 37  1  0  0  0  0
 11 38  1  0  0  0  0
 11 39  1  0  0  0  0
 11 40  1  0  0  0  0
 12 41  1  0  0  0  0
 13 42  1  0  0  0  0
 14 43  1  0  0  0  0
 14 44  1  0  0  0  0
 15 45  1  0  0  0  0
 15 46  1  0  0  0  0
  2 47  1  0  0  0  0
 16 48  1  0  0  0  0
 18 49  1  0  0  0  0
 18 50  1  0  0  0  0
 19 51  1  0  0  0  0
 21 52  1  0  0  0  0
 21 53  1  0  0  0  0
 22 54  1  0  0  0  0
 25 55  1  0  0  0  0
 25 56  1  0  0  0  0
 25 57  1  0  0  0  0
 28 58  1  0  0  0  0
 28 59  1  0  0  0  0
 28 60  1  0  0  0  0
 29 61  1  0  0  0  0
 30 62  1  0  0  0  0
 30 63  1  0  0  0  0
 30 64  1  0  0  0  0
 31 65  1  0  0  0  0
 32 66  1  0  0  0  0
 32 67  1  0  0  0  0
 32 68  1  0  0  0  0
 33 69  1  0  0  0  0
 33 70  1  0  0  0  0
 33 71  1  0  0  0  0
  1 72  1  0  0  0  0
M  CHG  1   1   1
M  END
