 xtb: 6.6.1 (8d0f1dd)
          04062411113D

 72 72  0     0  0            999 V2000
   -1.3603    1.6548    2.2218 N   0  0  0  0  0  0  0  0  0  0  0  0
   -1.4641    2.0230    0.9925 C   0  0  0  0  0  0  0  0  0  0  0  0
   -2.2916    1.4299    0.0133 C   0  0  0  0  0  0  0  0  0  0  0  0
   -3.0988    0.2716    0.2356 C   0  0  0  0  0  0  0  0  0  0  0  0
   -3.9906   -0.2180   -0.7470 C   0  0  0  0  0  0  0  0  0  0  0  0
   -4.7394   -1.3583   -0.5481 C   0  0  0  0  0  0  0  0  0  0  0  0
   -5.6206   -1.8788   -1.4346 O   0  0  0  0  0  0  0  0  0  0  0  0
   -5.8644   -1.1999   -2.6415 C   0  0  0  0  0  0  0  0  0  0  0  0
   -4.6136   -2.0906    0.6654 C   0  0  0  0  0  0  0  0  0  0  0  0
   -5.3612   -3.2065    0.7547 O   0  0  0  0  0  0  0  0  0  0  0  0
   -5.2847   -3.9891    1.9235 C   0  0  0  0  0  0  0  0  0  0  0  0
   -3.7516   -1.6046    1.6435 C   0  0  0  0  0  0  0  0  0  0  0  0
   -3.0199   -0.4554    1.4401 C   0  0  0  0  0  0  0  0  0  0  0  0
   -2.2039    2.0287   -1.3587 C   0  0  0  0  0  0  0  0  0  0  0  0
   -1.3012    1.1658   -2.2948 C   0  0  0  0  0  0  0  0  0  0  0  0
    0.0874    1.1636   -1.8006 C   0  0  0  0  0  0  0  0  0  0  0  0
    0.6364    0.2097   -1.0673 N   0  0  0  0  0  0  0  0  0  0  0  0
    1.9921    0.3425   -0.5918 C   0  0  0  0  0  0  0  0  0  0  0  0
    2.9944   -0.3975   -1.4996 C   0  0  0  0  0  0  0  0  0  0  0  0
    4.3960   -0.1905   -0.9979 C   0  0  0  0  0  0  0  0  0  0  0  0
    5.0536    1.0062   -1.2333 C   0  0  0  0  0  0  0  0  0  0  0  0
    6.3352    1.2195   -0.7508 C   0  0  0  0  0  0  0  0  0  0  0  0
    6.9879    0.2355   -0.0227 C   0  0  0  0  0  0  0  0  0  0  0  0
    8.2296    0.3318    0.4908 O   0  0  0  0  0  0  0  0  0  0  0  0
    8.9662    1.5147    0.2860 C   0  0  0  0  0  0  0  0  0  0  0  0
    6.3239   -0.9976    0.2196 C   0  0  0  0  0  0  0  0  0  0  0  0
    7.0340   -1.9019    0.9245 O   0  0  0  0  0  0  0  0  0  0  0  0
    6.4805   -3.1721    1.1709 C   0  0  0  0  0  0  0  0  0  0  0  0
    5.0388   -1.1846   -0.2653 C   0  0  0  0  0  0  0  0  0  0  0  0
   -0.0222   -1.0523   -0.8247 C   0  0  0  0  0  0  0  0  0  0  0  0
   -5.4871    3.4486    1.3163 C   0  0  0  0  0  0  0  0  0  0  0  0
   -5.2710    2.2420    2.1164 C   0  0  0  0  0  0  0  0  0  0  0  0
   -4.4203    4.3898    0.9621 C   0  0  0  0  0  0  0  0  0  0  0  0
   -4.1158    0.3204   -1.6709 H   0  0  0  0  0  0  0  0  0  0  0  0
   -6.2414   -0.1875   -2.4654 H   0  0  0  0  0  0  0  0  0  0  0  0
   -6.6263   -1.7824   -3.1549 H   0  0  0  0  0  0  0  0  0  0  0  0
   -4.9664   -1.1525   -3.2661 H   0  0  0  0  0  0  0  0  0  0  0  0
   -5.6163   -3.4288    2.8021 H   0  0  0  0  0  0  0  0  0  0  0  0
   -5.9545   -4.8301    1.7579 H   0  0  0  0  0  0  0  0  0  0  0  0
   -4.2684   -4.3607    2.0897 H   0  0  0  0  0  0  0  0  0  0  0  0
   -3.6457   -2.1283    2.5797 H   0  0  0  0  0  0  0  0  0  0  0  0
   -2.3583   -0.0929    2.2103 H   0  0  0  0  0  0  0  0  0  0  0  0
   -3.1864    2.1145   -1.8213 H   0  0  0  0  0  0  0  0  0  0  0  0
   -1.7784    3.0317   -1.3045 H   0  0  0  0  0  0  0  0  0  0  0  0
   -1.7137    0.1603   -2.3523 H   0  0  0  0  0  0  0  0  0  0  0  0
   -1.3259    1.6206   -3.2869 H   0  0  0  0  0  0  0  0  0  0  0  0
   -0.8880    2.8842    0.6211 H   0  0  0  0  0  0  0  0  0  0  0  0
    0.6743    2.0570   -1.9475 H   0  0  0  0  0  0  0  0  0  0  0  0
    2.0515   -0.0594    0.4234 H   0  0  0  0  0  0  0  0  0  0  0  0
    2.2610    1.4001   -0.5544 H   0  0  0  0  0  0  0  0  0  0  0  0
    2.9003   -0.0042   -2.5144 H   0  0  0  0  0  0  0  0  0  0  0  0
    2.7562   -1.4618   -1.5200 H   0  0  0  0  0  0  0  0  0  0  0  0
    4.5733    1.7829   -1.8090 H   0  0  0  0  0  0  0  0  0  0  0  0
    6.8219    2.1592   -0.9538 H   0  0  0  0  0  0  0  0  0  0  0  0
    8.4686    2.3796    0.7355 H   0  0  0  0  0  0  0  0  0  0  0  0
    9.1352    1.7026   -0.7785 H   0  0  0  0  0  0  0  0  0  0  0  0
    9.9222    1.3522    0.7797 H   0  0  0  0  0  0  0  0  0  0  0  0
    7.2453   -3.7230    1.7147 H   0  0  0  0  0  0  0  0  0  0  0  0
    5.5777   -3.1050    1.7865 H   0  0  0  0  0  0  0  0  0  0  0  0
    6.2503   -3.6974    0.2387 H   0  0  0  0  0  0  0  0  0  0  0  0
    4.5275   -2.1175   -0.0867 H   0  0  0  0  0  0  0  0  0  0  0  0
   -0.2183   -1.5770   -1.7616 H   0  0  0  0  0  0  0  0  0  0  0  0
   -0.9672   -0.8990   -0.3015 H   0  0  0  0  0  0  0  0  0  0  0  0
    0.6155   -1.6762   -0.2048 H   0  0  0  0  0  0  0  0  0  0  0  0
   -6.4916    3.6780    0.9918 H   0  0  0  0  0  0  0  0  0  0  0  0
   -4.2160    2.0602    2.3035 H   0  0  0  0  0  0  0  0  0  0  0  0
   -5.7052    1.3648    1.6276 H   0  0  0  0  0  0  0  0  0  0  0  0
   -5.7888    2.3253    3.0778 H   0  0  0  0  0  0  0  0  0  0  0  0
   -3.4447    4.0165    1.2615 H   0  0  0  0  0  0  0  0  0  0  0  0
   -4.4189    4.5926   -0.1125 H   0  0  0  0  0  0  0  0  0  0  0  0
   -4.5917    5.3588    1.4423 H   0  0  0  0  0  0  0  0  0  0  0  0
   -0.7353    2.2062    2.7965 H   0  0  0  0  0  0  0  0  0  0  0  0
  1  2  2  0  0  0  0
  2  3  4  0  0  0  0
  3  4  4  0  0  0  0
  4  5  4  0  0  0  0
  5  6  4  0  0  0  0
  6  7  1  0  0  0  0
  7  8  1  0  0  0  0
  6  9  4  0  0  0  0
  9 10  1  0  0  0  0
 10 11  1  0  0  0  0
  9 12  4  0  0  0  0
  4 13  4  0  0  0  0
 12 13  4  0  0  0  0
  3 14  1  0  0  0  0
 14 15  1  0  0  0  0
 15 16  1  0  0  0  0
 16 17  4  0  0  0  0
 17 18  1  0  0  0  0
 18 19  1  0  0  0  0
 19 20  1  0  0  0  0
 20 21  4  0  0  0  0
 21 22  4  0  0  0  0
 22 23  4  0  0  0  0
 23 24  1  0  0  0  0
 24 25  1  0  0  0  0
 23 26  4  0  0  0  0
 26 27  1  0  0  0  0
 27 28  1  0  0  0  0
 20 29  4  0  0  0  0
 26 29  4  0  0  0  0
 17 30  1  0  0  0  0
 31 32  1  0  0  0  0
 31 33  1  0  0  0  0
  5 34  1  0  0  0  0
  8 35  1  0  0  0  0
  8 36  1  0  0  0  0
  8 37  1  0  0  0  0
 11 38  1  0  0  0  0
 11 39  1  0  0  0  0
 11 40  1  0  0  0  0
 12 41  1  0  0  0  0
 13 42  1  0  0  0  0
 14 43  1  0  0  0  0
 14 44  1  0  0  0  0
 15 45  1  0  0  0  0
 15 46  1  0  0  0  0
  2 47  1  0  0  0  0
 16 48  1  0  0  0  0
 18 49  1  0  0  0  0
 18 50  1  0  0  0  0
 19 51  1  0  0  0  0
 19 52  1  0  0  0  0
 21 53  1  0  0  0  0
 22 54  1  0  0  0  0
 25 55  1  0  0  0  0
 25 56  1  0  0  0  0
 25 57  1  0  0  0  0
 28 58  1  0  0  0  0
 28 59  1  0  0  0  0
 28 60  1  0  0  0  0
 29 61  1  0  0  0  0
 30 62  1  0  0  0  0
 30 63  1  0  0  0  0
 30 64  1  0  0  0  0
 31 65  1  0  0  0  0
 32 66  1  0  0  0  0
 32 67  1  0  0  0  0
 32 68  1  0  0  0  0
 33 69  1  0  0  0  0
 33 70  1  0  0  0  0
 33 71  1  0  0  0  0
  1 72  1  0  0  0  0
M  CHG  1   1   1
M  END
