 xtb: 6.6.1 (8d0f1dd)
          06052420003D

 25 26  0     0  0            999 V2000
    3.1825    1.0491    0.2687 C   0  0  0  0  0  0  0  0  0  0  0  0
    2.2268    0.0214   -0.0081 N   0  0  0  0  0  0  0  0  0  0  0  0
    2.4581   -1.3513    0.0864 C   0  0  0  0  0  0  0  0  0  0  0  0
    1.4469   -2.0693   -0.1880 N   0  0  0  0  0  0  0  0  0  0  0  0
    0.3901   -1.1833   -0.6030 C   0  0  0  0  0  0  0  0  0  0  0  0
    0.9571    0.1769   -0.3778 C   0  0  0  0  0  0  0  0  0  0  0  0
    0.1108    1.3492   -0.2774 C   0  0  0  0  0  0  0  0  0  0  0  0
    0.5146    2.4926   -0.2614 O   0  0  0  0  0  0  0  0  0  0  0  0
   -1.2280    1.0125   -0.1528 N   0  0  0  0  0  0  0  0  0  0  0  0
   -2.1904    2.0924   -0.0722 C   0  0  0  0  0  0  0  0  0  0  0  0
   -1.7349   -0.2645    0.1604 C   0  0  0  0  0  0  0  0  0  0  0  0
   -2.8768   -0.3868    0.5197 O   0  0  0  0  0  0  0  0  0  0  0  0
   -0.8763   -1.3315    0.0648 N   0  0  0  0  0  0  0  0  0  0  0  0
   -1.3712   -2.6662    0.2893 C   0  0  0  0  0  0  0  0  0  0  0  0
    3.7575    0.7925    1.1585 H   0  0  0  0  0  0  0  0  0  0  0  0
    3.8741    1.1509   -0.5723 H   0  0  0  0  0  0  0  0  0  0  0  0
    2.6674    2.0008    0.4068 H   0  0  0  0  0  0  0  0  0  0  0  0
    3.4129   -1.7440    0.3866 H   0  0  0  0  0  0  0  0  0  0  0  0
   -1.7104    3.0099   -0.4060 H   0  0  0  0  0  0  0  0  0  0  0  0
   -3.0512    1.8521   -0.6973 H   0  0  0  0  0  0  0  0  0  0  0  0
   -2.5490    2.2150    0.9525 H   0  0  0  0  0  0  0  0  0  0  0  0
   -0.6121   -3.2409    0.8198 H   0  0  0  0  0  0  0  0  0  0  0  0
   -1.5871   -3.1693   -0.6573 H   0  0  0  0  0  0  0  0  0  0  0  0
   -2.2862   -2.5994    0.8753 H   0  0  0  0  0  0  0  0  0  0  0  0
    0.2354   -1.3906   -1.6840 H   0  0  0  0  0  0  0  0  0  0  0  0
  1  2  1  0  0  0  0
  2  3  1  0  0  0  0
  3  4  2  0  0  0  0
  4  5  1  0  0  0  0
  2  6  4  0  0  0  0
  5  6  1  0  0  0  0
  6  7  1  0  0  0  0
  7  8  2  0  0  0  0
  7  9  1  0  0  0  0
  9 10  1  0  0  0  0
  9 11  1  0  0  0  0
 11 12  2  0  0  0  0
  5 13  1  0  0  0  0
 11 13  1  0  0  0  0
 13 14  1  0  0  0  0
  1 15  1  0  0  0  0
  1 16  1  0  0  0  0
  1 17  1  0  0  0  0
  3 18  1  0  0  0  0
 10 19  1  0  0  0  0
 10 20  1  0  0  0  0
 10 21  1  0  0  0  0
 14 22  1  0  0  0  0
 14 23  1  0  0  0  0
 14 24  1  0  0  0  0
  5 25  1  0  0  0  0
M  CHG  1   1   1
M  END
