 xtb: 6.6.1 (8d0f1dd)
          06052419573D

 25 26  0     0  0            999 V2000
    3.2181    1.1485    0.0745 C   0  0  0  0  0  0  0  0  0  0  0  0
    2.3157    0.0282    0.0482 N   0  0  0  0  0  0  0  0  0  0  0  0
    2.6330   -1.2653    0.0645 C   0  0  0  0  0  0  0  0  0  0  0  0
    1.5043   -2.0148    0.0393 N   0  0  0  0  0  0  0  0  0  0  0  0
    0.4353   -1.1658    0.0063 C   0  0  0  0  0  0  0  0  0  0  0  0
    0.9441    0.1249    0.0128 C   0  0  0  0  0  0  0  0  0  0  0  0
    0.0708    1.2770   -0.0023 C   0  0  0  0  0  0  0  0  0  0  0  0
    0.3994    2.4416    0.0006 O   0  0  0  0  0  0  0  0  0  0  0  0
   -1.2789    0.8653   -0.0217 N   0  0  0  0  0  0  0  0  0  0  0  0
   -2.2392    1.9926    0.0643 C   0  0  0  0  0  0  0  0  0  0  0  0
   -1.7582   -0.3731   -0.0348 C   0  0  0  0  0  0  0  0  0  0  0  0
   -3.5337    1.5434    0.0145 O   0  0  0  0  0  0  0  0  0  0  0  0
   -0.8971   -1.4095   -0.0265 N   0  0  0  0  0  0  0  0  0  0  0  0
   -1.4132   -2.7623   -0.0332 C   0  0  0  0  0  0  0  0  0  0  0  0
    3.7366    1.1966    1.0331 H   0  0  0  0  0  0  0  0  0  0  0  0
    3.9577    1.0596   -0.7206 H   0  0  0  0  0  0  0  0  0  0  0  0
    2.6399    2.0618   -0.0617 H   0  0  0  0  0  0  0  0  0  0  0  0
    3.6279   -1.6614    0.0937 H   0  0  0  0  0  0  0  0  0  0  0  0
   -1.9687    2.7039   -0.7263 H   0  0  0  0  0  0  0  0  0  0  0  0
   -3.9959    1.8699   -0.7714 H   0  0  0  0  0  0  0  0  0  0  0  0
   -2.0449    2.4797    1.0307 H   0  0  0  0  0  0  0  0  0  0  0  0
   -1.1010   -3.2974    0.8648 H   0  0  0  0  0  0  0  0  0  0  0  0
   -1.0707   -3.2995   -0.9188 H   0  0  0  0  0  0  0  0  0  0  0  0
   -2.4988   -2.7016   -0.0495 H   0  0  0  0  0  0  0  0  0  0  0  0
    1.4779   -3.0242    0.0507 H   0  0  0  0  0  0  0  0  0  0  0  0
  1  2  1  0  0  0  0
  2  3  4  0  0  0  0
  3  4  4  0  0  0  0
  4  5  1  0  0  0  0
  2  6  1  0  0  0  0
  5  6  4  0  0  0  0
  6  7  1  0  0  0  0
  7  8  2  0  0  0  0
  7  9  1  0  0  0  0
  9 10  1  0  0  0  0
  9 11  4  0  0  0  0
 10 12  1  0  0  0  0
  5 13  1  0  0  0  0
 11 13  4  0  0  0  0
 13 14  1  0  0  0  0
  1 15  1  0  0  0  0
  1 16  1  0  0  0  0
  1 17  1  0  0  0  0
  3 18  1  0  0  0  0
 10 19  1  0  0  0  0
 12 20  1  0  0  0  0
 10 21  1  0  0  0  0
 14 22  1  0  0  0  0
 14 23  1  0  0  0  0
 14 24  1  0  0  0  0
  4 25  1  0  0  0  0
M  CHG  1   1   1
M  END
