 xtb: 6.6.1 (8d0f1dd)
          06052419583D

 25 26  0     0  0            999 V2000
    2.9442    1.3840    0.1260 C   0  0  0  0  0  0  0  0  0  0  0  0
    2.0995    0.2168    0.1662 N   0  0  0  0  0  0  0  0  0  0  0  0
    2.4812   -1.0556   -0.0416 C   0  0  0  0  0  0  0  0  0  0  0  0
    1.3831   -1.8488   -0.1424 N   0  0  0  0  0  0  0  0  0  0  0  0
    0.2803   -1.0626   -0.0177 C   0  0  0  0  0  0  0  0  0  0  0  0
    0.7212    0.2586    0.1699 C   0  0  0  0  0  0  0  0  0  0  0  0
   -0.1774    1.3087    0.3257 C   0  0  0  0  0  0  0  0  0  0  0  0
    3.2392    1.6088   -1.2181 O   0  0  0  0  0  0  0  0  0  0  0  0
   -1.4682    0.9528    0.2890 N   0  0  0  0  0  0  0  0  0  0  0  0
   -2.4799    1.9788    0.4546 C   0  0  0  0  0  0  0  0  0  0  0  0
   -1.9749   -0.3392    0.1054 C   0  0  0  0  0  0  0  0  0  0  0  0
   -3.1570   -0.5643    0.0906 O   0  0  0  0  0  0  0  0  0  0  0  0
   -1.0312   -1.3701   -0.0597 N   0  0  0  0  0  0  0  0  0  0  0  0
   -1.5024   -2.7238   -0.2712 C   0  0  0  0  0  0  0  0  0  0  0  0
    2.3714    2.2112    0.5717 H   0  0  0  0  0  0  0  0  0  0  0  0
    3.8523    1.1912    0.7187 H   0  0  0  0  0  0  0  0  0  0  0  0
    3.7980    2.3885   -1.3250 H   0  0  0  0  0  0  0  0  0  0  0  0
    3.4937   -1.3902   -0.1267 H   0  0  0  0  0  0  0  0  0  0  0  0
   -1.9812    2.9356    0.5832 H   0  0  0  0  0  0  0  0  0  0  0  0
   -3.1312    2.0059   -0.4202 H   0  0  0  0  0  0  0  0  0  0  0  0
   -3.0989    1.7544    1.3248 H   0  0  0  0  0  0  0  0  0  0  0  0
   -1.1763   -3.3736    0.5419 H   0  0  0  0  0  0  0  0  0  0  0  0
   -1.1390   -3.1079   -1.2250 H   0  0  0  0  0  0  0  0  0  0  0  0
   -2.5916   -2.6951   -0.2888 H   0  0  0  0  0  0  0  0  0  0  0  0
    1.4054   -2.8460   -0.3001 H   0  0  0  0  0  0  0  0  0  0  0  0
  1  2  1  0  0  0  0
  2  3  4  0  0  0  0
  3  4  4  0  0  0  0
  4  5  1  0  0  0  0
  2  6  1  0  0  0  0
  5  6  4  0  0  0  0
  6  7  4  0  0  0  0
  1  8  1  0  0  0  0
  7  9  4  0  0  0  0
  9 10  1  0  0  0  0
  9 11  1  0  0  0  0
 11 12  2  0  0  0  0
  5 13  4  0  0  0  0
 11 13  1  0  0  0  0
 13 14  1  0  0  0  0
  1 15  1  0  0  0  0
  1 16  1  0  0  0  0
  8 17  1  0  0  0  0
  3 18  1  0  0  0  0
 10 19  1  0  0  0  0
 10 20  1  0  0  0  0
 10 21  1  0  0  0  0
 14 22  1  0  0  0  0
 14 23  1  0  0  0  0
 14 24  1  0  0  0  0
  4 25  1  0  0  0  0
M  CHG  1   1   1
M  END
