 xtb: 6.6.1 (8d0f1dd)
          06052419593D

 25 25  0     0  0            999 V2000
    3.0389    1.1506    0.1875 C   0  0  0  0  0  0  0  0  0  0  0  0
    2.1221    0.0543    0.0473 N   0  0  0  0  0  0  0  0  0  0  0  0
    2.4538   -1.2004   -0.1638 C   0  0  0  0  0  0  0  0  0  0  0  0
    1.3625   -1.9683   -0.2480 N   0  0  0  0  0  0  0  0  0  0  0  0
    0.2048   -1.1779   -0.0826 C   0  0  0  0  0  0  0  0  0  0  0  0
    0.7276    0.1513    0.1287 C   0  0  0  0  0  0  0  0  0  0  0  0
    0.1108    1.3917    0.2794 C   0  0  0  0  0  0  0  0  0  0  0  0
    0.5520    2.5085    0.2926 O   0  0  0  0  0  0  0  0  0  0  0  0
   -1.4390    1.3054    0.4613 N   0  0  0  0  0  0  0  0  0  0  0  0
   -2.1992    2.0447   -0.5410 C   0  0  0  0  0  0  0  0  0  0  0  0
   -1.8849    0.8323    1.5191 C   0  0  0  0  0  0  0  0  0  0  0  0
   -2.1616    0.3476    2.5199 O   0  0  0  0  0  0  0  0  0  0  0  0
   -1.0094   -1.5436   -0.1398 N   0  0  0  0  0  0  0  0  0  0  0  0
   -1.4434   -2.8764   -0.4211 C   0  0  0  0  0  0  0  0  0  0  0  0
    2.8994    1.6382    1.1522 H   0  0  0  0  0  0  0  0  0  0  0  0
    4.0589    0.7823    0.1100 H   0  0  0  0  0  0  0  0  0  0  0  0
    2.8581    1.8951   -0.5882 H   0  0  0  0  0  0  0  0  0  0  0  0
    3.4619   -1.5607   -0.2534 H   0  0  0  0  0  0  0  0  0  0  0  0
   -1.6676    2.9755   -0.7482 H   0  0  0  0  0  0  0  0  0  0  0  0
   -2.2601    1.4431   -1.4500 H   0  0  0  0  0  0  0  0  0  0  0  0
   -3.2010    2.2688   -0.1777 H   0  0  0  0  0  0  0  0  0  0  0  0
   -1.6571   -3.3895    0.5213 H   0  0  0  0  0  0  0  0  0  0  0  0
   -0.7455   -3.4929   -1.0090 H   0  0  0  0  0  0  0  0  0  0  0  0
   -2.3832   -2.7964   -0.9691 H   0  0  0  0  0  0  0  0  0  0  0  0
    1.3616   -2.9650   -0.3963 H   0  0  0  0  0  0  0  0  0  0  0  0
  1  2  1  0  0  0  0
  2  3  4  0  0  0  0
  3  4  4  0  0  0  0
  4  5  1  0  0  0  0
  2  6  1  0  0  0  0
  5  6  1  0  0  0  0
  6  7  4  0  0  0  0
  7  8  2  0  0  0  0
  7  9  1  0  0  0  0
  9 10  1  0  0  0  0
  9 11  2  0  0  0  0
 11 12  2  0  0  0  0
  5 13  2  0  0  0  0
 13 14  1  0  0  0  0
  1 15  1  0  0  0  0
  1 16  1  0  0  0  0
  1 17  1  0  0  0  0
  3 18  1  0  0  0  0
 10 19  1  0  0  0  0
 10 20  1  0  0  0  0
 10 21  1  0  0  0  0
 14 22  1  0  0  0  0
 14 23  1  0  0  0  0
 14 24  1  0  0  0  0
  4 25  1  0  0  0  0
M  CHG  1   1   1
M  END
