 xtb: 6.6.1 (8d0f1dd)
          06052419583D

 25 25  0     0  0            999 V2000
    3.2020    1.0725    0.0278 C   0  0  0  0  0  0  0  0  0  0  0  0
    2.1794    0.0690    0.1029 N   0  0  0  0  0  0  0  0  0  0  0  0
    2.3523   -1.2703    0.1888 C   0  0  0  0  0  0  0  0  0  0  0  0
    1.2131   -1.9257    0.2508 N   0  0  0  0  0  0  0  0  0  0  0  0
    0.2465   -0.9877    0.2008 C   0  0  0  0  0  0  0  0  0  0  0  0
    0.8280    0.2799    0.1057 C   0  0  0  0  0  0  0  0  0  0  0  0
    0.0530    1.4875    0.0115 C   0  0  0  0  0  0  0  0  0  0  0  0
    0.4853    2.6174   -0.0647 O   0  0  0  0  0  0  0  0  0  0  0  0
   -1.3265    1.2162    0.0091 N   0  0  0  0  0  0  0  0  0  0  0  0
   -2.2273    2.3517   -0.1003 C   0  0  0  0  0  0  0  0  0  0  0  0
   -1.9458   -0.0076    0.1003 C   0  0  0  0  0  0  0  0  0  0  0  0
   -3.1409   -0.1348    0.0854 O   0  0  0  0  0  0  0  0  0  0  0  0
   -1.1099   -1.1754    0.2361 N   0  0  0  0  0  0  0  0  0  0  0  0
   -1.6855   -2.3615    0.3916 C   0  0  0  0  0  0  0  0  0  0  0  0
    3.7885    1.0859    0.9492 H   0  0  0  0  0  0  0  0  0  0  0  0
    3.8743    0.8654   -0.8068 H   0  0  0  0  0  0  0  0  0  0  0  0
    2.7366    2.0484   -0.1124 H   0  0  0  0  0  0  0  0  0  0  0  0
    3.3141   -1.7447    0.2040 H   0  0  0  0  0  0  0  0  0  0  0  0
   -1.6281    3.2612   -0.1223 H   0  0  0  0  0  0  0  0  0  0  0  0
   -2.8224    2.2721   -1.0116 H   0  0  0  0  0  0  0  0  0  0  0  0
   -2.9108    2.3699    0.7504 H   0  0  0  0  0  0  0  0  0  0  0  0
   -1.0613   -3.2287    0.5065 H   0  0  0  0  0  0  0  0  0  0  0  0
    0.5772   -4.2346   -1.3838 H   0  0  0  0  0  0  0  0  0  0  0  0
   -2.7613   -2.4054    0.4021 H   0  0  0  0  0  0  0  0  0  0  0  0
    0.9299   -3.7023   -0.8900 H   0  0  0  0  0  0  0  0  0  0  0  0
  1  2  1  0  0  0  0
  2  3  4  0  0  0  0
  3  4  4  0  0  0  0
  4  5  4  0  0  0  0
  2  6  1  0  0  0  0
  5  6  4  0  0  0  0
  6  7  1  0  0  0  0
  7  8  2  0  0  0  0
  7  9  1  0  0  0  0
  9 10  1  0  0  0  0
  9 11  1  0  0  0  0
 11 12  2  0  0  0  0
  5 13  1  0  0  0  0
 11 13  1  0  0  0  0
 13 14  4  0  0  0  0
  1 15  1  0  0  0  0
  1 16  1  0  0  0  0
  1 17  1  0  0  0  0
  3 18  1  0  0  0  0
 10 19  1  0  0  0  0
 10 20  1  0  0  0  0
 10 21  1  0  0  0  0
 14 22  1  0  0  0  0
 14 24  1  0  0  0  0
 23 25  1  0  0  0  0
M  CHG  1   1   1
M  END
