          24
 
C              3.22860102        1.14822614        0.00096588
N              2.28471249        0.06193503       -0.00860046
C              2.57170558       -1.23536418       -0.02082872
N              1.43414083       -1.96067559       -0.01463530
C              0.37630649       -1.08428980       -0.00011094
C              0.91754053        0.19621368        0.00394122
C              0.09553065        1.38543902        0.01235375
O              0.49776586        2.52681780        0.02406499
N             -1.26475960        1.05698678        0.00267030
C             -2.21579721        2.16437924       -0.01120301
C             -1.84340050       -0.18182300       -0.00901877
O             -3.02661976       -0.36535481       -0.03512084
N             -0.95469091       -1.33837106        0.01296335
C             -1.51720472       -2.55624299        0.04239821
H              3.83607876        1.11262619        0.90555589
H              3.88593706        1.08610367       -0.86618018
H              2.67956693        2.08898491       -0.02541510
H              3.56058033       -1.64991110       -0.03355991
H             -1.65028717        3.09252584        0.00240129
H             -2.83195008        2.10934823       -0.90757979
H             -2.86543350        2.10384799        0.86068974
H             -0.91242794       -3.44068499        0.07108555
H             -2.60112750       -2.61994168        0.06167592
H              1.38113569       -2.96846270       -0.02980215
