          23
 
C              3.39837753        1.18764163       -0.00994819
N              2.45362850        0.09958218       -0.01245398
C              2.78860135       -1.18464488       -0.02122985
N              1.68927131       -1.94458770        0.00170266
C              0.55730998       -1.11107544        0.02559780
C              1.09290452        0.20828107        0.01449174
C              0.34078004        1.47116064        0.00868642
O              0.90368382        2.56887900       -0.06873719
N             -0.97123045        1.30028338        0.09094268
C             -1.91107968        2.32733614        0.11647659
N             -0.67558345       -1.45298880        0.05144781
C             -1.19384587       -2.76396423        0.06802990
H              3.91514117        1.23350843        0.94949115
H              4.13239163        1.04940399       -0.80253337
H              2.85728397        2.12326745       -0.16395157
H              3.79683540       -1.55543082       -0.03762662
H             -1.45204592        3.32015464        0.00600101
H             -2.64415471        2.16874601       -0.68407206
H             -2.46551761        2.28886623        1.06121671
H             -0.84953258       -3.33248773        0.94014059
H             -0.92715065       -3.32045570       -0.83823126
H             -2.28049478       -2.68946448        0.11469029
H              1.67806344       -2.95364987       -0.01638744
