 xtb: 6.6.1 (8d0f1dd)
          06052419573D

 25 25  0     0  0            999 V2000
    3.3655    1.0451    0.0611 C   0  0  0  0  0  0  0  0  0  0  0  0
    2.3764    0.0019    0.0281 N   0  0  0  0  0  0  0  0  0  0  0  0
    2.5985   -1.3086   -0.0050 C   0  0  0  0  0  0  0  0  0  0  0  0
    1.4193   -1.9742   -0.0120 N   0  0  0  0  0  0  0  0  0  0  0  0
    0.4151   -1.0543    0.0167 C   0  0  0  0  0  0  0  0  0  0  0  0
    1.0118    0.2002    0.0447 C   0  0  0  0  0  0  0  0  0  0  0  0
    0.2561    1.4130    0.0587 C   0  0  0  0  0  0  0  0  0  0  0  0
    0.6710    2.5503    0.0826 O   0  0  0  0  0  0  0  0  0  0  0  0
   -1.1621    1.1446    0.0247 N   0  0  0  0  0  0  0  0  0  0  0  0
   -1.9822    2.2032    0.0071 C   0  0  0  0  0  0  0  0  0  0  0  0
   -1.7721   -0.1434    0.0091 C   0  0  0  0  0  0  0  0  0  0  0  0
   -2.9657   -0.2650   -0.0053 O   0  0  0  0  0  0  0  0  0  0  0  0
   -0.9203   -1.2446    0.0120 N   0  0  0  0  0  0  0  0  0  0  0  0
   -1.4969   -2.5772    0.0017 C   0  0  0  0  0  0  0  0  0  0  0  0
    3.8240    1.1024    1.0498 H   0  0  0  0  0  0  0  0  0  0  0  0
    4.1429    0.8519   -0.6767 H   0  0  0  0  0  0  0  0  0  0  0  0
    2.8799    1.9970   -0.1515 H   0  0  0  0  0  0  0  0  0  0  0  0
    3.5634   -1.7729   -0.0268 H   0  0  0  0  0  0  0  0  0  0  0  0
   -1.5311    3.1793    0.0231 H   0  0  0  0  0  0  0  0  0  0  0  0
   -4.8164    2.1018   -0.3980 H   0  0  0  0  0  0  0  0  0  0  0  0
   -3.0642    2.0576   -0.0717 H   0  0  0  0  0  0  0  0  0  0  0  0
   -1.1935   -3.1280    0.8920 H   0  0  0  0  0  0  0  0  0  0  0  0
   -1.1954   -3.1152   -0.8974 H   0  0  0  0  0  0  0  0  0  0  0  0
   -2.5802   -2.4685    0.0031 H   0  0  0  0  0  0  0  0  0  0  0  0
    1.3167   -2.9782   -0.0387 H   0  0  0  0  0  0  0  0  0  0  0  0
  1  2  1  0  0  0  0
  2  3  4  0  0  0  0
  3  4  4  0  0  0  0
  4  5  1  0  0  0  0
  2  6  1  0  0  0  0
  5  6  4  0  0  0  0
  6  7  1  0  0  0  0
  7  8  2  0  0  0  0
  7  9  1  0  0  0  0
  9 10  4  0  0  0  0
  9 11  1  0  0  0  0
 11 12  2  0  0  0  0
  5 13  1  0  0  0  0
 11 13  1  0  0  0  0
 13 14  1  0  0  0  0
  1 15  1  0  0  0  0
  1 16  1  0  0  0  0
  1 17  1  0  0  0  0
  3 18  1  0  0  0  0
 10 19  1  0  0  0  0
 10 21  1  0  0  0  0
 14 22  1  0  0  0  0
 14 23  1  0  0  0  0
 14 24  1  0  0  0  0
  4 25  1  0  0  0  0
M  CHG  1   1   1
M  END
