 xtb: 6.6.1 (8d0f1dd)
          06052419593D

 25 27  0     0  0            999 V2000
    3.2409    1.0443   -0.5966 C   0  0  0  0  0  0  0  0  0  0  0  0
    2.2991    0.1678    0.0054 N   0  0  0  0  0  0  0  0  0  0  0  0
    2.4666   -0.9422    0.9008 C   0  0  0  0  0  0  0  0  0  0  0  0
    1.5492   -2.0122    0.4938 N   0  0  0  0  0  0  0  0  0  0  0  0
    0.9799   -0.9002    1.1717 C   0  0  0  0  0  0  0  0  0  0  0  0
    0.9504    0.2086    0.1603 C   0  0  0  0  0  0  0  0  0  0  0  0
    0.0479    1.1186   -0.3986 C   0  0  0  0  0  0  0  0  0  0  0  0
    0.2459    2.0331   -1.1600 O   0  0  0  0  0  0  0  0  0  0  0  0
   -1.3849    0.9176    0.0663 N   0  0  0  0  0  0  0  0  0  0  0  0
   -1.9791    2.0335    0.7853 C   0  0  0  0  0  0  0  0  0  0  0  0
   -2.0805   -0.0662   -0.3296 C   0  0  0  0  0  0  0  0  0  0  0  0
   -3.3035   -0.5139   -0.2680 O   0  0  0  0  0  0  0  0  0  0  0  0
   -2.2004   -1.1513   -1.1050 N   0  0  0  0  0  0  0  0  0  0  0  0
   -1.7893   -2.4745   -0.7491 C   0  0  0  0  0  0  0  0  0  0  0  0
    3.8417    1.5520    0.1652 H   0  0  0  0  0  0  0  0  0  0  0  0
    3.9196    0.4744   -1.2372 H   0  0  0  0  0  0  0  0  0  0  0  0
    2.7081    1.7884   -1.1882 H   0  0  0  0  0  0  0  0  0  0  0  0
    3.3567   -1.1037    1.4781 H   0  0  0  0  0  0  0  0  0  0  0  0
   -1.7099    2.9525    0.2626 H   0  0  0  0  0  0  0  0  0  0  0  0
   -3.0636    1.9282    0.8195 H   0  0  0  0  0  0  0  0  0  0  0  0
   -1.5774    2.0607    1.8008 H   0  0  0  0  0  0  0  0  0  0  0  0
   -1.7789   -2.6548    0.3280 H   0  0  0  0  0  0  0  0  0  0  0  0
   -0.7817   -2.5930   -1.1502 H   0  0  0  0  0  0  0  0  0  0  0  0
   -2.4580   -3.1770   -1.2437 H   0  0  0  0  0  0  0  0  0  0  0  0
    1.6617   -2.8721    1.0198 H   0  0  0  0  0  0  0  0  0  0  0  0
  1  2  1  0  0  0  0
  2  3  1  0  0  0  0
  3  4  1  0  0  0  0
  3  5  1  0  0  0  0
  4  5  1  0  0  0  0
  2  6  4  0  0  0  0
  5  6  1  0  0  0  0
  6  7  4  0  0  0  0
  7  8  2  0  0  0  0
  7  9  1  0  0  0  0
  9 10  1  0  0  0  0
  9 11  2  0  0  0  0
 11 12  1  0  0  0  0
 11 13  1  0  0  0  0
 12 13  1  0  0  0  0
 13 14  1  0  0  0  0
  1 15  1  0  0  0  0
  1 16  1  0  0  0  0
  1 17  1  0  0  0  0
  3 18  1  0  0  0  0
 10 19  1  0  0  0  0
 10 20  1  0  0  0  0
 10 21  1  0  0  0  0
 14 22  1  0  0  0  0
 14 23  1  0  0  0  0
 14 24  1  0  0  0  0
  4 25  1  0  0  0  0
M  CHG  1   1   1
M  END
