 xtb: 6.6.1 (8d0f1dd)
          06052419593D

 25 25  0     0  0            999 V2000
    3.8363    0.6240    0.0934 C   0  0  0  0  0  0  0  0  0  0  0  0
    3.4975   -0.4806   -0.4409 N   0  0  0  0  0  0  0  0  0  0  0  0
    2.7499   -1.5161   -0.3104 C   0  0  0  0  0  0  0  0  0  0  0  0
    1.4168   -1.5933   -0.0294 N   0  0  0  0  0  0  0  0  0  0  0  0
    0.4410   -0.6341    0.0461 C   0  0  0  0  0  0  0  0  0  0  0  0
    0.6480    0.7390    0.0294 C   0  0  0  0  0  0  0  0  0  0  0  0
   -0.4230    1.6123   -0.0132 C   0  0  0  0  0  0  0  0  0  0  0  0
   -0.1851    2.9229   -0.0157 O   0  0  0  0  0  0  0  0  0  0  0  0
   -1.7086    1.1384   -0.0966 N   0  0  0  0  0  0  0  0  0  0  0  0
   -2.7875    1.9138   -0.2951 C   0  0  0  0  0  0  0  0  0  0  0  0
   -1.9603   -0.2629    0.0672 C   0  0  0  0  0  0  0  0  0  0  0  0
   -3.0899   -0.6671    0.1268 O   0  0  0  0  0  0  0  0  0  0  0  0
   -0.8618   -1.0870    0.1437 N   0  0  0  0  0  0  0  0  0  0  0  0
   -1.1580   -2.5036    0.3117 C   0  0  0  0  0  0  0  0  0  0  0  0
    3.6570    0.8652    1.1396 H   0  0  0  0  0  0  0  0  0  0  0  0
    4.4208    1.3102   -0.5043 H   0  0  0  0  0  0  0  0  0  0  0  0
    1.6284    1.1723    0.0407 H   0  0  0  0  0  0  0  0  0  0  0  0
    3.1894   -2.4644   -0.5865 H   0  0  0  0  0  0  0  0  0  0  0  0
   -0.9818    3.4530    0.1350 H   0  0  0  0  0  0  0  0  0  0  0  0
   -2.6950    2.9524   -0.5398 H   0  0  0  0  0  0  0  0  0  0  0  0
   -3.7457    1.4316   -0.2938 H   0  0  0  0  0  0  0  0  0  0  0  0
   -0.6134   -2.9128    1.1643 H   0  0  0  0  0  0  0  0  0  0  0  0
   -0.9438   -3.0644   -0.6012 H   0  0  0  0  0  0  0  0  0  0  0  0
   -2.2269   -2.5908    0.5136 H   0  0  0  0  0  0  0  0  0  0  0  0
    1.0560   -2.5398   -0.0535 H   0  0  0  0  0  0  0  0  0  0  0  0
  1  2  2  0  0  0  0
  2  3  4  0  0  0  0
  3  4  1  0  0  0  0
  4  5  1  0  0  0  0
  5  6  4  0  0  0  0
  6  7  4  0  0  0  0
  7  8  1  0  0  0  0
  7  9  1  0  0  0  0
  9 10  4  0  0  0  0
  9 11  1  0  0  0  0
 11 12  2  0  0  0  0
  5 13  1  0  0  0  0
 11 13  1  0  0  0  0
 13 14  1  0  0  0  0
  1 15  1  0  0  0  0
  1 16  1  0  0  0  0
  6 17  1  0  0  0  0
  3 18  1  0  0  0  0
  8 19  1  0  0  0  0
 10 20  1  0  0  0  0
 10 21  1  0  0  0  0
 14 22  1  0  0  0  0
 14 23  1  0  0  0  0
 14 24  1  0  0  0  0
  4 25  1  0  0  0  0
M  CHG  1   1   1
M  END
