 xtb: 6.6.1 (8d0f1dd)
          06052419593D

 25 26  0     0  0            999 V2000
    2.9198    1.4794    0.1555 C   0  0  0  0  0  0  0  0  0  0  0  0
    2.0842    0.2731    0.1234 N   0  0  0  0  0  0  0  0  0  0  0  0
    2.4748   -0.9873   -0.0792 C   0  0  0  0  0  0  0  0  0  0  0  0
    1.3917   -1.7954   -0.1786 N   0  0  0  0  0  0  0  0  0  0  0  0
    0.2804   -1.0226   -0.0459 C   0  0  0  0  0  0  0  0  0  0  0  0
    0.7061    0.2954    0.1443 C   0  0  0  0  0  0  0  0  0  0  0  0
   -0.2030    1.3473    0.3364 C   0  0  0  0  0  0  0  0  0  0  0  0
    3.2199    1.9023   -1.1181 O   0  0  0  0  0  0  0  0  0  0  0  0
   -1.4770    0.9668    0.2990 N   0  0  0  0  0  0  0  0  0  0  0  0
   -2.5085    1.9702    0.4916 C   0  0  0  0  0  0  0  0  0  0  0  0
   -1.9781   -0.3293    0.0902 C   0  0  0  0  0  0  0  0  0  0  0  0
   -3.1530   -0.5661    0.0603 O   0  0  0  0  0  0  0  0  0  0  0  0
   -1.0208   -1.3501   -0.0764 N   0  0  0  0  0  0  0  0  0  0  0  0
   -1.4740   -2.7138   -0.2702 C   0  0  0  0  0  0  0  0  0  0  0  0
    2.3064    2.2573    0.6222 H   0  0  0  0  0  0  0  0  0  0  0  0
    3.8060    1.2649    0.7675 H   0  0  0  0  0  0  0  0  0  0  0  0
    3.9866    1.4489   -1.4878 H   0  0  0  0  0  0  0  0  0  0  0  0
    3.4903   -1.3237   -0.1399 H   0  0  0  0  0  0  0  0  0  0  0  0
   -2.0270    2.9327    0.6354 H   0  0  0  0  0  0  0  0  0  0  0  0
   -3.1645    1.9992   -0.3785 H   0  0  0  0  0  0  0  0  0  0  0  0
   -3.1153    1.7148    1.3607 H   0  0  0  0  0  0  0  0  0  0  0  0
   -1.1182   -3.3515    0.5393 H   0  0  0  0  0  0  0  0  0  0  0  0
   -1.1285   -3.0973   -1.2304 H   0  0  0  0  0  0  0  0  0  0  0  0
   -2.5633   -2.7022   -0.2626 H   0  0  0  0  0  0  0  0  0  0  0  0
    1.4253   -2.7946   -0.3271 H   0  0  0  0  0  0  0  0  0  0  0  0
  1  2  1  0  0  0  0
  2  3  4  0  0  0  0
  3  4  4  0  0  0  0
  4  5  1  0  0  0  0
  2  6  1  0  0  0  0
  5  6  4  0  0  0  0
  6  7  4  0  0  0  0
  1  8  1  0  0  0  0
  7  9  4  0  0  0  0
  9 10  1  0  0  0  0
  9 11  1  0  0  0  0
 11 12  2  0  0  0  0
  5 13  4  0  0  0  0
 11 13  1  0  0  0  0
 13 14  1  0  0  0  0
  1 15  1  0  0  0  0
  1 16  1  0  0  0  0
  8 17  1  0  0  0  0
  3 18  1  0  0  0  0
 10 19  1  0  0  0  0
 10 20  1  0  0  0  0
 10 21  1  0  0  0  0
 14 22  1  0  0  0  0
 14 23  1  0  0  0  0
 14 24  1  0  0  0  0
  4 25  1  0  0  0  0
M  CHG  1   1   1
M  END
