 xtb: 6.6.1 (8d0f1dd)
          06052420003D

 25 25  0     0  0            999 V2000
    3.1636    1.3997    0.0145 C   0  0  0  0  0  0  0  0  0  0  0  0
    2.3383    0.2682   -0.0250 N   0  0  0  0  0  0  0  0  0  0  0  0
    2.5697   -2.2842   -0.0208 C   0  0  0  0  0  0  0  0  0  0  0  0
    1.2938   -2.2275   -0.0110 N   0  0  0  0  0  0  0  0  0  0  0  0
    0.4575   -1.1101   -0.0079 C   0  0  0  0  0  0  0  0  0  0  0  0
    1.0539    0.1716   -0.0057 C   0  0  0  0  0  0  0  0  0  0  0  0
    0.1348    1.3595    0.0000 C   0  0  0  0  0  0  0  0  0  0  0  0
    0.5502    2.4932   -0.0010 O   0  0  0  0  0  0  0  0  0  0  0  0
   -1.2025    1.0579   -0.0006 N   0  0  0  0  0  0  0  0  0  0  0  0
   -2.1570    2.1619    0.0012 C   0  0  0  0  0  0  0  0  0  0  0  0
   -1.7746   -0.2004    0.0030 C   0  0  0  0  0  0  0  0  0  0  0  0
   -2.9628   -0.3653    0.0098 O   0  0  0  0  0  0  0  0  0  0  0  0
   -0.8868   -1.2886   -0.0013 N   0  0  0  0  0  0  0  0  0  0  0  0
   -1.4800   -2.6131   -0.0003 C   0  0  0  0  0  0  0  0  0  0  0  0
    3.6343    1.4620    1.0016 H   0  0  0  0  0  0  0  0  0  0  0  0
    3.9595    1.2760   -0.7232 H   0  0  0  0  0  0  0  0  0  0  0  0
    2.6066    2.3241   -0.1744 H   0  0  0  0  0  0  0  0  0  0  0  0
    3.2232   -1.4196   -0.0323 H   0  0  0  0  0  0  0  0  0  0  0  0
   -1.6053    3.0983    0.0115 H   0  0  0  0  0  0  0  0  0  0  0  0
   -2.7853    2.1023   -0.8874 H   0  0  0  0  0  0  0  0  0  0  0  0
   -2.7971    2.0891    0.8801 H   0  0  0  0  0  0  0  0  0  0  0  0
   -1.2057   -3.1655    0.9002 H   0  0  0  0  0  0  0  0  0  0  0  0
   -1.2024   -3.1673   -0.8985 H   0  0  0  0  0  0  0  0  0  0  0  0
   -2.5628   -2.4814   -0.0017 H   0  0  0  0  0  0  0  0  0  0  0  0
    0.7973   -3.1226    0.0003 H   0  0  0  0  0  0  0  0  0  0  0  0
  1  2  1  0  0  0  0
  3  4  2  0  0  0  0
  4  5  1  0  0  0  0
  2  6  2  0  0  0  0
  5  6  4  0  0  0  0
  6  7  1  0  0  0  0
  7  8  2  0  0  0  0
  7  9  1  0  0  0  0
  9 10  1  0  0  0  0
  9 11  1  0  0  0  0
 11 12  2  0  0  0  0
  5 13  4  0  0  0  0
 11 13  1  0  0  0  0
 13 14  1  0  0  0  0
  1 15  1  0  0  0  0
  1 16  1  0  0  0  0
  1 17  1  0  0  0  0
  3 18  1  0  0  0  0
 10 19  1  0  0  0  0
 10 20  1  0  0  0  0
 10 21  1  0  0  0  0
 14 22  1  0  0  0  0
 14 23  1  0  0  0  0
 14 24  1  0  0  0  0
  4 25  1  0  0  0  0
M  CHG  1   1   1
M  END
