 xtb: 6.6.1 (8d0f1dd)
          04062411143D

 72 73  0     0  0            999 V2000
   -0.7190    1.4377    1.1867 N   0  0  0  0  0  0  0  0  0  0  0  0
   -1.6519    2.2461    0.9436 C   0  0  0  0  0  0  0  0  0  0  0  0
   -2.8735    1.8836    0.1451 C   0  0  0  0  0  0  0  0  0  0  0  0
   -3.3401    0.4454    0.3199 C   0  0  0  0  0  0  0  0  0  0  0  0
   -4.3167   -0.0532   -0.5476 C   0  0  0  0  0  0  0  0  0  0  0  0
   -4.8294   -1.3321   -0.4123 C   0  0  0  0  0  0  0  0  0  0  0  0
   -5.7740   -1.8799   -1.2077 O   0  0  0  0  0  0  0  0  0  0  0  0
   -6.3996   -1.0830   -2.1855 C   0  0  0  0  0  0  0  0  0  0  0  0
   -4.3545   -2.1696    0.6316 C   0  0  0  0  0  0  0  0  0  0  0  0
   -4.9016   -3.4005    0.6852 O   0  0  0  0  0  0  0  0  0  0  0  0
   -4.5184   -4.2758    1.7197 C   0  0  0  0  0  0  0  0  0  0  0  0
   -3.3971   -1.6664    1.4965 C   0  0  0  0  0  0  0  0  0  0  0  0
   -2.9032   -0.3765    1.3465 C   0  0  0  0  0  0  0  0  0  0  0  0
   -2.5019    2.1645   -1.3364 C   0  0  0  0  0  0  0  0  0  0  0  0
   -1.6208    1.0788   -1.9832 C   0  0  0  0  0  0  0  0  0  0  0  0
   -0.2245    1.1066   -1.5015 C   0  0  0  0  0  0  0  0  0  0  0  0
    0.4393    0.0840   -1.0102 N   0  0  0  0  0  0  0  0  0  0  0  0
    1.7966    0.2376   -0.5473 C   0  0  0  0  0  0  0  0  0  0  0  0
    2.8282   -0.3152   -1.5500 C   0  0  0  0  0  0  0  0  0  0  0  0
    4.2076   -0.1317   -0.9805 C   0  0  0  0  0  0  0  0  0  0  0  0
    4.8337    1.1027   -1.0460 C   0  0  0  0  0  0  0  0  0  0  0  0
    6.0721    1.3029   -0.4568 C   0  0  0  0  0  0  0  0  0  0  0  0
    6.7120    0.2683    0.2104 C   0  0  0  0  0  0  0  0  0  0  0  0
    7.9041    0.3535    0.8301 O   0  0  0  0  0  0  0  0  0  0  0  0
    8.5971    1.5803    0.8182 C   0  0  0  0  0  0  0  0  0  0  0  0
    6.0866   -1.0074    0.2659 C   0  0  0  0  0  0  0  0  0  0  0  0
    6.7835   -1.9604    0.9168 O   0  0  0  0  0  0  0  0  0  0  0  0
    6.2720   -3.2705    0.9746 C   0  0  0  0  0  0  0  0  0  0  0  0
    4.8434   -1.1809   -0.3229 C   0  0  0  0  0  0  0  0  0  0  0  0
   -0.1790   -1.2017   -0.8065 C   0  0  0  0  0  0  0  0  0  0  0  0
   -4.0663    2.7975    0.5759 C   0  0  0  0  0  0  0  0  0  0  0  0
   -4.3180    2.6625    2.0783 C   0  0  0  0  0  0  0  0  0  0  0  0
   -3.9137    4.2720    0.2024 C   0  0  0  0  0  0  0  0  0  0  0  0
   -4.6946    0.5722   -1.3392 H   0  0  0  0  0  0  0  0  0  0  0  0
   -6.8688   -0.1991   -1.7425 H   0  0  0  0  0  0  0  0  0  0  0  0
   -7.1685   -1.7134   -2.6284 H   0  0  0  0  0  0  0  0  0  0  0  0
   -5.6957   -0.7737   -2.9659 H   0  0  0  0  0  0  0  0  0  0  0  0
   -4.7587   -3.8632    2.7043 H   0  0  0  0  0  0  0  0  0  0  0  0
   -5.0935   -5.1857    1.5602 H   0  0  0  0  0  0  0  0  0  0  0  0
   -3.4501   -4.5096    1.6730 H   0  0  0  0  0  0  0  0  0  0  0  0
   -3.0324   -2.2689    2.3123 H   0  0  0  0  0  0  0  0  0  0  0  0
   -2.1691   -0.0221    2.0501 H   0  0  0  0  0  0  0  0  0  0  0  0
   -3.4193    2.2461   -1.9192 H   0  0  0  0  0  0  0  0  0  0  0  0
   -1.9862    3.1241   -1.3987 H   0  0  0  0  0  0  0  0  0  0  0  0
   -2.0795    0.1057   -1.8289 H   0  0  0  0  0  0  0  0  0  0  0  0
   -1.6069    1.2886   -3.0598 H   0  0  0  0  0  0  0  0  0  0  0  0
    0.3100    2.0414   -1.5828 H   0  0  0  0  0  0  0  0  0  0  0  0
   -1.6097    3.2976    1.2326 H   0  0  0  0  0  0  0  0  0  0  0  0
    1.9010   -0.2861    0.4066 H   0  0  0  0  0  0  0  0  0  0  0  0
    2.0064    1.2955   -0.3780 H   0  0  0  0  0  0  0  0  0  0  0  0
    2.7332    0.2277   -2.4924 H   0  0  0  0  0  0  0  0  0  0  0  0
    2.6340   -1.3714   -1.7401 H   0  0  0  0  0  0  0  0  0  0  0  0
    4.3609    1.9217   -1.5663 H   0  0  0  0  0  0  0  0  0  0  0  0
    6.5334    2.2744   -0.5235 H   0  0  0  0  0  0  0  0  0  0  0  0
    8.0300    2.3643    1.3297 H   0  0  0  0  0  0  0  0  0  0  0  0
    8.8272    1.9013   -0.2021 H   0  0  0  0  0  0  0  0  0  0  0  0
    9.5251    1.3973    1.3567 H   0  0  0  0  0  0  0  0  0  0  0  0
    7.0153   -3.8500    1.5190 H   0  0  0  0  0  0  0  0  0  0  0  0
    5.3199   -3.3083    1.5138 H   0  0  0  0  0  0  0  0  0  0  0  0
    6.1439   -3.6952   -0.0262 H   0  0  0  0  0  0  0  0  0  0  0  0
    4.3597   -2.1442   -0.2827 H   0  0  0  0  0  0  0  0  0  0  0  0
   -0.6213   -1.5750   -1.7289 H   0  0  0  0  0  0  0  0  0  0  0  0
   -0.9566   -1.1184   -0.0438 H   0  0  0  0  0  0  0  0  0  0  0  0
    0.5690   -1.9142   -0.4717 H   0  0  0  0  0  0  0  0  0  0  0  0
   -4.9537    2.4209    0.0562 H   0  0  0  0  0  0  0  0  0  0  0  0
   -3.4929    3.0764    2.6543 H   0  0  0  0  0  0  0  0  0  0  0  0
   -4.4425    1.6187    2.3581 H   0  0  0  0  0  0  0  0  0  0  0  0
   -5.2225    3.1990    2.3530 H   0  0  0  0  0  0  0  0  0  0  0  0
   -3.0213    4.7162    0.6357 H   0  0  0  0  0  0  0  0  0  0  0  0
   -3.8850    4.4164   -0.8741 H   0  0  0  0  0  0  0  0  0  0  0  0
   -4.7703    4.8202    0.5859 H   0  0  0  0  0  0  0  0  0  0  0  0
    0.0638    1.8179    1.7122 H   0  0  0  0  0  0  0  0  0  0  0  0
  1  2  2  0  0  0  0
  2  3  1  0  0  0  0
  3  4  1  0  0  0  0
  4  5  4  0  0  0  0
  5  6  4  0  0  0  0
  6  7  1  0  0  0  0
  7  8  1  0  0  0  0
  6  9  4  0  0  0  0
  9 10  1  0  0  0  0
 10 11  1  0  0  0  0
  9 12  4  0  0  0  0
  4 13  4  0  0  0  0
 12 13  4  0  0  0  0
  3 14  1  0  0  0  0
 14 15  1  0  0  0  0
 15 16  1  0  0  0  0
 16 17  4  0  0  0  0
 17 18  1  0  0  0  0
 18 19  1  0  0  0  0
 19 20  1  0  0  0  0
 20 21  4  0  0  0  0
 21 22  4  0  0  0  0
 22 23  4  0  0  0  0
 23 24  1  0  0  0  0
 24 25  1  0  0  0  0
 23 26  4  0  0  0  0
 26 27  1  0  0  0  0
 27 28  1  0  0  0  0
 20 29  4  0  0  0  0
 26 29  4  0  0  0  0
 17 30  1  0  0  0  0
  3 31  1  0  0  0  0
 31 32  1  0  0  0  0
 31 33  1  0  0  0  0
  5 34  1  0  0  0  0
  8 35  1  0  0  0  0
  8 36  1  0  0  0  0
  8 37  1  0  0  0  0
 11 38  1  0  0  0  0
 11 39  1  0  0  0  0
 11 40  1  0  0  0  0
 12 41  1  0  0  0  0
 13 42  1  0  0  0  0
 14 43  1  0  0  0  0
 14 44  1  0  0  0  0
 15 45  1  0  0  0  0
 15 46  1  0  0  0  0
 16 47  1  0  0  0  0
  2 48  1  0  0  0  0
 18 49  1  0  0  0  0
 18 50  1  0  0  0  0
 19 51  1  0  0  0  0
 19 52  1  0  0  0  0
 21 53  1  0  0  0  0
 22 54  1  0  0  0  0
 25 55  1  0  0  0  0
 25 56  1  0  0  0  0
 25 57  1  0  0  0  0
 28 58  1  0  0  0  0
 28 59  1  0  0  0  0
 28 60  1  0  0  0  0
 29 61  1  0  0  0  0
 30 62  1  0  0  0  0
 30 63  1  0  0  0  0
 30 64  1  0  0  0  0
 31 65  1  0  0  0  0
 32 66  1  0  0  0  0
 32 67  1  0  0  0  0
 32 68  1  0  0  0  0
 33 69  1  0  0  0  0
 33 70  1  0  0  0  0
 33 71  1  0  0  0  0
  1 72  1  0  0  0  0
M  CHG  1   1   1
M  END
