          21
 
N              2.23746098       -0.35905014       -0.03863741
C              2.36190529       -1.65155795       -0.03205500
N              1.14877547       -2.28909541       -0.01660363
C              0.20750715       -1.31240399       -0.01516694
C              0.90739830       -0.09898963       -0.03041162
C              0.20139296        1.16236410       -0.02587356
O              0.70565945        2.26316276       -0.03775926
N             -1.18271873        0.98279812       -0.00503784
C             -2.01993475        2.17323559        0.00398733
C             -1.88346837       -0.21121143        0.01086895
O             -3.08498119       -0.24213665        0.03302564
N             -1.13355175       -1.40017758       -0.00076623
C             -1.82968053       -2.66923379        0.01267173
H              3.29861577       -2.17235826       -0.03796793
H             -1.37446664        3.04529853       -0.06924622
H             -2.71654335        2.14034319       -0.83433758
H             -2.60237450        2.21094256        0.92565398
H             -1.55464096       -3.24448130        0.89815149
H             -1.59641447       -3.24069028       -0.88701584
H             -2.89892807       -2.46150407        0.03813966
H              0.99941444       -3.28679613       -0.01369904
