          24
 
C              3.15657905        1.06810513        0.01871627
N              2.28999026        0.06362344        0.00291338
C              2.55235103       -1.26330072       -0.00263263
N              1.38576448       -1.96611118       -0.00370560
C              0.35599076       -1.07855140        0.00081631
C              0.90277525        0.19333409       -0.00053673
C              0.08019312        1.38108781        0.00906927
O              0.48245364        2.52029422        0.02215352
N             -1.27727242        1.05402047       -0.00167666
C             -2.23149811        2.15380600        0.00144388
C             -1.84779592       -0.20569755        0.00172202
O             -3.03482969       -0.37379558        0.00023237
N             -0.96669485       -1.30931548        0.00670565
C             -1.52019007       -2.64910467        0.03662333
H              2.77555153        2.07324016        0.03641301
H              4.20902420        0.85845952        0.01707449
H              3.52844629       -1.70204097       -0.00094640
H             -1.67274557        3.08657228        0.00564633
H             -2.86624350        2.09539281       -0.88263008
H             -2.86750528        2.08895262        0.88414183
H             -1.18003156       -3.18127153        0.92531328
H             -1.24051287       -3.19963188       -0.86193582
H             -2.60484427       -2.55340610        0.07128536
H              1.32228382       -2.97326570       -0.00161274
