          68
 
N             -1.74186157        2.69045552        2.50355404
C             -1.75391198        2.07662641        1.41645561
C             -2.92786283        2.02264351        0.47730472
C             -3.48267591        0.60715392        0.44229291
C             -4.44118586        0.26217137       -0.51287992
C             -4.97450433       -1.01461259       -0.57552567
O             -5.90491426       -1.42747645       -1.45944730
C             -6.48041390       -0.49370019       -2.34297387
C             -4.52987972       -2.00481371        0.34310447
O             -5.08408664       -3.22377547        0.19529611
C             -4.73099240       -4.25135979        1.09169577
C             -3.58815655       -1.65172345        1.29665098
C             -3.07480922       -0.36156455        1.34632527
C             -2.37674802        2.41146041       -0.92055412
C             -1.55852402        1.30968462       -1.61932004
C             -0.23147687        1.08518298       -1.00783854
N              0.30401975       -0.09399725       -0.72735319
C              1.68328132       -0.18655745       -0.31269100
C              2.59947005       -0.66788581       -1.45798809
C              4.03248248       -0.43115039       -1.08265080
C              4.60586577        0.82744032       -1.29930686
C              5.89051948        1.09980548       -0.92002170
C              6.72136199        0.12028130       -0.28131344
O              7.88337374        0.34464263        0.07822414
C              6.09502437       -1.19541949       -0.07594764
O              6.90532861       -2.08234227        0.50866253
C              6.46659026       -3.39853898        0.74553697
C              4.78874790       -1.42604078       -0.46886548
C             -0.41577406       -1.33228631       -0.90930499
C             -4.07806427        2.99336652        0.87882442
C             -4.71726995        2.58478188        2.20361729
C             -3.63394803        4.45181390        0.94746937
H             -4.78346281        1.00842855       -1.21036093
H             -6.96411331        0.32463477       -1.80135560
H             -7.23078862       -1.04724716       -2.90378647
H             -5.73917720       -0.08661455       -3.03836919
H             -4.98795714       -3.99069369        2.12255724
H             -5.31086426       -5.11909805        0.78384165
H             -3.66395161       -4.48837041        1.02955638
H             -3.25157661       -2.37405937        2.02232705
H             -2.36458441       -0.11805911        2.12105328
H             -3.21436764        2.66918481       -1.56727031
H             -1.75606397        3.30207365       -0.81656329
H             -2.14146850        0.39193007       -1.66886418
H             -1.38866751        1.65314424       -2.64788302
H             -0.88029619        1.53357117        1.00681698
H              0.41085825        1.94650716       -0.89128010
H              1.76055115       -0.87543704        0.53271062
H              2.02401262        0.79731200        0.01658081
H              2.35681650       -0.09740983       -2.35718998
H              2.42201654       -1.72477949       -1.65880758
H              4.02211158        1.59656586       -1.78603181
H              6.32928724        2.06977412       -1.09312827
H              7.30859532       -3.90904617        1.20902820
H              5.61050680       -3.41862033        1.42750494
H              6.20308886       -3.90546787       -0.18773726
H              4.34439894       -2.39789992       -0.30898706
H             -0.55445147       -1.55551322       -1.96993450
H             -1.39483086       -1.27943223       -0.42765692
H              0.14823583       -2.14378613       -0.45558043
H             -4.84182851        2.90870765        0.09722361
H             -3.99378026        2.66981611        3.00806414
H             -5.08401290        1.56188593        2.16452614
H             -5.55559988        3.24115317        2.42107766
H             -2.86229846        4.57606592        1.70099468
H             -3.26230516        4.80949775       -0.00907636
H             -4.48280593        5.07024801        1.22682655
H             -0.88495396        2.68254187        3.04749304
