 xtb: 6.6.1 (8d0f1dd)
          06052419593D

 25 25  0     0  0            999 V2000
    2.6512    1.3397    0.0347 C   0  0  0  0  0  0  0  0  0  0  0  0
    2.0693    0.0246    0.0082 N   0  0  0  0  0  0  0  0  0  0  0  0
    2.7176   -1.1319   -0.1371 C   0  0  0  0  0  0  0  0  0  0  0  0
    1.8297   -2.1571   -0.1259 N   0  0  0  0  0  0  0  0  0  0  0  0
    0.5789   -1.6333    0.0314 C   0  0  0  0  0  0  0  0  0  0  0  0
    0.7239   -0.2495    0.1151 C   0  0  0  0  0  0  0  0  0  0  0  0
   -0.4454    0.5961    0.2260 C   0  0  0  0  0  0  0  0  0  0  0  0
   -0.4294    1.8356    0.2766 O   0  0  0  0  0  0  0  0  0  0  0  0
   -1.5966   -0.1318    0.2478 N   0  0  0  0  0  0  0  0  0  0  0  0
   -2.9167    3.9751   -0.1766 C   0  0  0  0  0  0  0  0  0  0  0  0
   -1.6975   -1.3991    0.1912 C   0  0  0  0  0  0  0  0  0  0  0  0
   -2.8081    2.7304    0.0462 O   0  0  0  0  0  0  0  0  0  0  0  0
   -0.6277   -2.2393    0.0810 N   0  0  0  0  0  0  0  0  0  0  0  0
   -0.7827   -3.6738   -0.0050 C   0  0  0  0  0  0  0  0  0  0  0  0
    3.3580    1.4270    0.8599 H   0  0  0  0  0  0  0  0  0  0  0  0
    3.1741    1.5417   -0.9006 H   0  0  0  0  0  0  0  0  0  0  0  0
    1.8505    2.0668    0.1664 H   0  0  0  0  0  0  0  0  0  0  0  0
    3.7766   -1.2391   -0.2475 H   0  0  0  0  0  0  0  0  0  0  0  0
   -1.8408    2.3839    0.2125 H   0  0  0  0  0  0  0  0  0  0  0  0
   -3.9159    4.3541   -0.3592 H   0  0  0  0  0  0  0  0  0  0  0  0
   -2.0680    4.6464   -0.2190 H   0  0  0  0  0  0  0  0  0  0  0  0
   -0.3049   -4.1664    0.8444 H   0  0  0  0  0  0  0  0  0  0  0  0
   -0.3553   -4.0523   -0.9352 H   0  0  0  0  0  0  0  0  0  0  0  0
   -1.8476   -3.8958    0.0111 H   0  0  0  0  0  0  0  0  0  0  0  0
    2.0671   -3.1337   -0.2150 H   0  0  0  0  0  0  0  0  0  0  0  0
  1  2  1  0  0  0  0
  2  3  4  0  0  0  0
  3  4  4  0  0  0  0
  4  5  1  0  0  0  0
  2  6  1  0  0  0  0
  5  6  4  0  0  0  0
  6  7  1  0  0  0  0
  7  8  2  0  0  0  0
  7  9  1  0  0  0  0
  9 11  2  0  0  0  0
 10 12  2  0  0  0  0
  5 13  4  0  0  0  0
 11 13  1  0  0  0  0
 13 14  1  0  0  0  0
  1 15  1  0  0  0  0
  1 16  1  0  0  0  0
  1 17  1  0  0  0  0
  3 18  1  0  0  0  0
 12 19  1  0  0  0  0
 10 20  1  0  0  0  0
 10 21  1  0  0  0  0
 14 22  1  0  0  0  0
 14 23  1  0  0  0  0
 14 24  1  0  0  0  0
  4 25  1  0  0  0  0
M  CHG  1   1   1
M  END
