 xtb: 6.6.1 (8d0f1dd)
          06052420003D

 25 25  0     0  0            999 V2000
    3.2271    1.1799    0.0546 C   0  0  0  0  0  0  0  0  0  0  0  0
    2.2706    0.1082   -0.0370 N   0  0  0  0  0  0  0  0  0  0  0  0
    2.5394   -1.1906   -0.1026 C   0  0  0  0  0  0  0  0  0  0  0  0
    1.3925   -1.8980   -0.1655 N   0  0  0  0  0  0  0  0  0  0  0  0
    0.3483   -1.0080   -0.1376 C   0  0  0  0  0  0  0  0  0  0  0  0
    0.9061    0.2619   -0.0573 C   0  0  0  0  0  0  0  0  0  0  0  0
    0.0974    1.4627   -0.0188 C   0  0  0  0  0  0  0  0  0  0  0  0
    0.5169    2.5960    0.0312 O   0  0  0  0  0  0  0  0  0  0  0  0
   -1.2657    1.1534   -0.0522 N   0  0  0  0  0  0  0  0  0  0  0  0
   -2.2021    2.2731   -0.0021 C   0  0  0  0  0  0  0  0  0  0  0  0
   -1.8617   -0.0770   -0.1101 C   0  0  0  0  0  0  0  0  0  0  0  0
   -3.0456   -0.2472   -0.1155 O   0  0  0  0  0  0  0  0  0  0  0  0
   -0.9850   -1.2415   -0.1733 N   0  0  0  0  0  0  0  0  0  0  0  0
   -1.5597   -2.4524   -0.2530 C   0  0  0  0  0  0  0  0  0  0  0  0
    3.7162    1.1666    1.0296 H   0  0  0  0  0  0  0  0  0  0  0  0
    3.9851    1.0771   -0.7204 H   0  0  0  0  0  0  0  0  0  0  0  0
    2.7034    2.1283   -0.0636 H   0  0  0  0  0  0  0  0  0  0  0  0
    3.5214   -1.6220   -0.1050 H   0  0  0  0  0  0  0  0  0  0  0  0
   -1.6240    3.1933    0.0234 H   0  0  0  0  0  0  0  0  0  0  0  0
   -2.8462    2.2544   -0.8797 H   0  0  0  0  0  0  0  0  0  0  0  0
   -2.8247    2.1936    0.8879 H   0  0  0  0  0  0  0  0  0  0  0  0
   -1.5806   -4.7591    1.7643 H   0  0  0  0  0  0  0  0  0  0  0  0
   -0.9644   -3.3403   -0.2875 H   0  0  0  0  0  0  0  0  0  0  0  0
   -2.6332   -2.4892   -0.2631 H   0  0  0  0  0  0  0  0  0  0  0  0
    1.3291   -2.9051   -0.2154 H   0  0  0  0  0  0  0  0  0  0  0  0
  1  2  1  0  0  0  0
  2  3  4  0  0  0  0
  3  4  4  0  0  0  0
  4  5  1  0  0  0  0
  2  6  1  0  0  0  0
  5  6  4  0  0  0  0
  6  7  1  0  0  0  0
  7  8  2  0  0  0  0
  7  9  1  0  0  0  0
  9 10  1  0  0  0  0
  9 11  1  0  0  0  0
 11 12  2  0  0  0  0
  5 13  1  0  0  0  0
 11 13  1  0  0  0  0
 13 14  4  0  0  0  0
  1 15  1  0  0  0  0
  1 16  1  0  0  0  0
  1 17  1  0  0  0  0
  3 18  1  0  0  0  0
 10 19  1  0  0  0  0
 10 20  1  0  0  0  0
 10 21  1  0  0  0  0
 14 23  1  0  0  0  0
 14 24  1  0  0  0  0
  4 25  1  0  0  0  0
M  CHG  1   1   1
M  END
