 xtb: 6.6.1 (8d0f1dd)
          04062411163D

 72 73  0     0  0            999 V2000
   -2.0113    2.6375    2.3671 N   0  0  0  0  0  0  0  0  0  0  0  0
   -1.8951    2.0748    1.2570 C   0  0  0  0  0  0  0  0  0  0  0  0
   -3.0222    1.8968    0.2732 C   0  0  0  0  0  0  0  0  0  0  0  0
   -3.5492    0.4787    0.3599 C   0  0  0  0  0  0  0  0  0  0  0  0
   -4.4344   -0.0106   -0.5582 C   0  0  0  0  0  0  0  0  0  0  0  0
   -4.8949   -1.3397   -0.5444 C   0  0  0  0  0  0  0  0  0  0  0  0
   -5.8083   -1.8482   -1.3694 O   0  0  0  0  0  0  0  0  0  0  0  0
   -6.5098   -1.0098   -2.2626 C   0  0  0  0  0  0  0  0  0  0  0  0
   -4.3401   -2.2597    0.4200 C   0  0  0  0  0  0  0  0  0  0  0  0
   -4.7312   -3.5485    0.2851 O   0  0  0  0  0  0  0  0  0  0  0  0
   -4.2713   -4.4310    1.2830 C   0  0  0  0  0  0  0  0  0  0  0  0
   -3.5142   -1.7930    1.3828 C   0  0  0  0  0  0  0  0  0  0  0  0
   -3.1141   -0.3901    1.5002 C   0  0  0  0  0  0  0  0  0  0  0  0
   -2.4317    2.1610   -1.1385 C   0  0  0  0  0  0  0  0  0  0  0  0
   -1.5073    1.0510   -1.6693 C   0  0  0  0  0  0  0  0  0  0  0  0
   -0.1717    1.0361   -1.0295 C   0  0  0  0  0  0  0  0  0  0  0  0
    0.4974   -0.0565   -0.6664 N   0  0  0  0  0  0  0  0  0  0  0  0
    1.8793    0.0380   -0.2579 C   0  0  0  0  0  0  0  0  0  0  0  0
    2.8457   -0.3736   -1.3854 C   0  0  0  0  0  0  0  0  0  0  0  0
    4.2654   -0.1623   -0.9389 C   0  0  0  0  0  0  0  0  0  0  0  0
    4.9027    1.0472   -1.1608 C   0  0  0  0  0  0  0  0  0  0  0  0
    6.2020    1.2558   -0.7241 C   0  0  0  0  0  0  0  0  0  0  0  0
    6.8887    0.2573   -0.0490 C   0  0  0  0  0  0  0  0  0  0  0  0
    8.1484    0.3475    0.4174 O   0  0  0  0  0  0  0  0  0  0  0  0
    8.8769    1.5345    0.2035 C   0  0  0  0  0  0  0  0  0  0  0  0
    6.2408   -0.9863    0.1884 C   0  0  0  0  0  0  0  0  0  0  0  0
    6.9799   -1.9001    0.8491 O   0  0  0  0  0  0  0  0  0  0  0  0
    6.4347   -3.1719    1.1066 C   0  0  0  0  0  0  0  0  0  0  0  0
    4.9419   -1.1716   -0.2575 C   0  0  0  0  0  0  0  0  0  0  0  0
   -0.0593   -1.3819   -0.7957 C   0  0  0  0  0  0  0  0  0  0  0  0
   -4.2114    2.8807    0.5261 C   0  0  0  0  0  0  0  0  0  0  0  0
   -4.9499    2.5627    1.8240 C   0  0  0  0  0  0  0  0  0  0  0  0
   -3.7758    4.3434    0.5289 C   0  0  0  0  0  0  0  0  0  0  0  0
   -4.7929    0.6370   -1.3444 H   0  0  0  0  0  0  0  0  0  0  0  0
   -7.0009   -0.1872   -1.7355 H   0  0  0  0  0  0  0  0  0  0  0  0
   -7.2627   -1.6434   -2.7273 H   0  0  0  0  0  0  0  0  0  0  0  0
   -5.8486   -0.6096   -3.0373 H   0  0  0  0  0  0  0  0  0  0  0  0
   -4.5880   -4.0954    2.2743 H   0  0  0  0  0  0  0  0  0  0  0  0
   -4.7084   -5.4008    1.0576 H   0  0  0  0  0  0  0  0  0  0  0  0
   -3.1790   -4.4983    1.2689 H   0  0  0  0  0  0  0  0  0  0  0  0
   -3.5375    0.0195    2.4303 H   0  0  0  0  0  0  0  0  0  0  0  0
   -2.0288   -0.3226    1.6468 H   0  0  0  0  0  0  0  0  0  0  0  0
   -3.2537    2.2826   -1.8432 H   0  0  0  0  0  0  0  0  0  0  0  0
   -1.8786    3.1004   -1.1143 H   0  0  0  0  0  0  0  0  0  0  0  0
   -2.0044    0.0858   -1.5839 H   0  0  0  0  0  0  0  0  0  0  0  0
   -1.3579    1.2499   -2.7390 H   0  0  0  0  0  0  0  0  0  0  0  0
   -0.9424    1.6642    0.8684 H   0  0  0  0  0  0  0  0  0  0  0  0
    0.3723    1.9680   -0.9883 H   0  0  0  0  0  0  0  0  0  0  0  0
    2.0407   -0.6062    0.6110 H   0  0  0  0  0  0  0  0  0  0  0  0
    2.0986    1.0667    0.0350 H   0  0  0  0  0  0  0  0  0  0  0  0
    2.6379    0.2364   -2.2662 H   0  0  0  0  0  0  0  0  0  0  0  0
    2.6840   -1.4208   -1.6430 H   0  0  0  0  0  0  0  0  0  0  0  0
    4.3932    1.8376   -1.6908 H   0  0  0  0  0  0  0  0  0  0  0  0
    6.6744    2.2043   -0.9196 H   0  0  0  0  0  0  0  0  0  0  0  0
    8.4011    2.3904    0.6920 H   0  0  0  0  0  0  0  0  0  0  0  0
    8.9981    1.7431   -0.8637 H   0  0  0  0  0  0  0  0  0  0  0  0
    9.8539    1.3617    0.6506 H   0  0  0  0  0  0  0  0  0  0  0  0
    7.2157   -3.7248    1.6248 H   0  0  0  0  0  0  0  0  0  0  0  0
    5.5511   -3.1073    1.7498 H   0  0  0  0  0  0  0  0  0  0  0  0
    6.1767   -3.6935    0.1797 H   0  0  0  0  0  0  0  0  0  0  0  0
    4.4448   -2.1143   -0.0903 H   0  0  0  0  0  0  0  0  0  0  0  0
   -0.1342   -1.6785   -1.8447 H   0  0  0  0  0  0  0  0  0  0  0  0
   -1.0536   -1.4333   -0.3501 H   0  0  0  0  0  0  0  0  0  0  0  0
    0.5831   -2.0908   -0.2792 H   0  0  0  0  0  0  0  0  0  0  0  0
   -4.9118    2.7365   -0.3044 H   0  0  0  0  0  0  0  0  0  0  0  0
   -4.2746    2.6527    2.6687 H   0  0  0  0  0  0  0  0  0  0  0  0
   -5.3734    1.5614    1.8031 H   0  0  0  0  0  0  0  0  0  0  0  0
   -5.7645    3.2696    1.9581 H   0  0  0  0  0  0  0  0  0  0  0  0
   -3.0643    4.5262    1.3282 H   0  0  0  0  0  0  0  0  0  0  0  0
   -3.3349    4.6389   -0.4193 H   0  0  0  0  0  0  0  0  0  0  0  0
   -4.6451    4.9726    0.7004 H   0  0  0  0  0  0  0  0  0  0  0  0
   -1.1793    2.7173    2.9433 H   0  0  0  0  0  0  0  0  0  0  0  0
  1  2  2  0  0  0  0
  2  3  1  0  0  0  0
  3  4  1  0  0  0  0
  4  5  2  0  0  0  0
  5  6  4  0  0  0  0
  6  7  1  0  0  0  0
  7  8  1  0  0  0  0
  6  9  1  0  0  0  0
  9 10  1  0  0  0  0
 10 11  1  0  0  0  0
  9 12  2  0  0  0  0
  4 13  1  0  0  0  0
 12 13  1  0  0  0  0
  3 14  1  0  0  0  0
 14 15  1  0  0  0  0
 15 16  1  0  0  0  0
 16 17  4  0  0  0  0
 17 18  1  0  0  0  0
 18 19  1  0  0  0  0
 19 20  1  0  0  0  0
 20 21  4  0  0  0  0
 21 22  4  0  0  0  0
 22 23  4  0  0  0  0
 23 24  1  0  0  0  0
 24 25  1  0  0  0  0
 23 26  4  0  0  0  0
 26 27  1  0  0  0  0
 27 28  1  0  0  0  0
 20 29  4  0  0  0  0
 26 29  4  0  0  0  0
 17 30  1  0  0  0  0
  3 31  1  0  0  0  0
 31 32  1  0  0  0  0
 31 33  1  0  0  0  0
  5 34  1  0  0  0  0
  8 35  1  0  0  0  0
  8 36  1  0  0  0  0
  8 37  1  0  0  0  0
 11 38  1  0  0  0  0
 11 39  1  0  0  0  0
 11 40  1  0  0  0  0
 13 41  1  0  0  0  0
 13 42  1  0  0  0  0
 14 43  1  0  0  0  0
 14 44  1  0  0  0  0
 15 45  1  0  0  0  0
 15 46  1  0  0  0  0
  2 47  1  0  0  0  0
 16 48  1  0  0  0  0
 18 49  1  0  0  0  0
 18 50  1  0  0  0  0
 19 51  1  0  0  0  0
 19 52  1  0  0  0  0
 21 53  1  0  0  0  0
 22 54  1  0  0  0  0
 25 55  1  0  0  0  0
 25 56  1  0  0  0  0
 25 57  1  0  0  0  0
 28 58  1  0  0  0  0
 28 59  1  0  0  0  0
 28 60  1  0  0  0  0
 29 61  1  0  0  0  0
 30 62  1  0  0  0  0
 30 63  1  0  0  0  0
 30 64  1  0  0  0  0
 31 65  1  0  0  0  0
 32 66  1  0  0  0  0
 32 67  1  0  0  0  0
 32 68  1  0  0  0  0
 33 69  1  0  0  0  0
 33 70  1  0  0  0  0
 33 71  1  0  0  0  0
  1 72  1  0  0  0  0
M  CHG  1   1   1
M  END
