          68
 
N             -1.83735312        2.74151535        2.51713425
C             -1.84648682        2.14091652        1.42294905
C             -3.03056847        2.06153233        0.49941738
C             -3.53404870        0.62706416        0.44204651
C             -4.50459168        0.27081870       -0.49655295
C             -5.00923201       -1.01723074       -0.56341010
O             -5.95325114       -1.44034738       -1.42810009
C             -6.57580023       -0.50897266       -2.28159358
C             -4.52179587       -2.00753209        0.33272434
O             -5.06227453       -3.23346255        0.19132687
C             -4.69392722       -4.25386425        1.08994163
C             -3.55886654       -1.64693360        1.26185878
C             -3.07502061       -0.34580797        1.31666718
C             -2.51315008        2.49847288       -0.89637931
C             -1.63370025        1.45339633       -1.60555070
C             -0.28227043        1.31970118       -1.01855586
N              0.35051594        0.17585625       -0.80024821
C              1.74391697        0.17000044       -0.42035562
C              2.66373685       -0.11577594       -1.62298406
C              4.09795626       -0.09783792       -1.17580536
C              4.84983896        1.06789690       -1.23457655
C              6.15973644        1.10478670       -0.79251392
C              6.74961373       -0.04616214       -0.26715810
O              8.00368561       -0.13705749        0.20085309
C              8.85408322        0.98582443        0.15229564
C              5.99099968       -1.22323571       -0.20745348
C              4.69063519       -1.24501986       -0.65179790
C             -0.28641338       -1.10329982       -1.00522036
C             -4.21256876        2.97772105        0.93568111
C             -4.81261669        2.52162402        2.26342283
C             -3.82986438        4.45247520        1.02231532
H             -4.88257092        1.01720710       -1.17520899
H             -7.05756475        0.29379214       -1.71545838
H             -7.33329141       -1.07152396       -2.82370649
H             -5.86598883       -0.07990102       -2.99632235
H             -4.92937152       -3.98197344        2.12306155
H             -5.28277009       -5.12254679        0.80225632
H             -3.62932641       -4.49548718        1.00874639
H             -3.18456589       -2.37165824        1.96651885
H             -2.35018105       -0.09678628        2.07616865
H             -3.36943589        2.70830694       -1.53627172
H             -1.94853158        3.42518409       -0.78790204
H             -2.15479306        0.49815335       -1.63821341
H             -1.50555265        1.79938726       -2.63964185
H             -0.96117612        1.63372344        0.99143167
H              0.29464291        2.22348328       -0.88606885
H              1.90327376       -0.59249016        0.34662442
H              2.00826251        1.14101143        0.00370916
H              2.49634453        0.64660281       -2.38559568
H              2.41751558       -1.09023684       -2.04712956
H              4.41092815        1.96657312       -1.64335231
H              6.71376181        2.02704813       -0.86152979
H              8.46201420        1.81109198        0.75456303
H              9.01049149        1.32425873       -0.87612163
H              9.80085138        0.65031867        0.57081192
H              6.46024159       -2.10786073        0.18978474
H              4.12713468       -2.16560509       -0.60421791
H             -0.50906391       -1.26913083       -2.06122997
H             -1.21793164       -1.16089686       -0.43658560
H              0.37743130       -1.89301729       -0.66343182
H             -4.98487755        2.87419841        0.16496474
H             -4.08123971        2.62665177        3.05825395
H             -5.13481462        1.48432643        2.21419181
H             -5.67559065        3.13708271        2.50323816
H             -3.04743800        4.59680455        1.76089746
H             -3.49680238        4.84354683        0.06461631
H             -4.69844751        5.02764214        1.33193677
H             -0.97268540        2.75432754        3.04861331
