 xtb: 6.6.1 (8d0f1dd)
          06052419583D

 25 26  0     0  0            999 V2000
    3.1568    1.1560    0.6294 C   0  0  0  0  0  0  0  0  0  0  0  0
    2.3543    0.1907   -0.1121 N   0  0  0  0  0  0  0  0  0  0  0  0
    2.6175   -1.2007   -0.1353 C   0  0  0  0  0  0  0  0  0  0  0  0
    1.4432   -1.9015   -0.0891 N   0  0  0  0  0  0  0  0  0  0  0  0
    0.4008   -1.0274   -0.0549 C   0  0  0  0  0  0  0  0  0  0  0  0
    0.9079    0.2546   -0.0723 C   0  0  0  0  0  0  0  0  0  0  0  0
    0.0720    1.4283   -0.1098 C   0  0  0  0  0  0  0  0  0  0  0  0
    0.4722    2.5643   -0.1965 O   0  0  0  0  0  0  0  0  0  0  0  0
   -1.2768    1.0790   -0.0563 N   0  0  0  0  0  0  0  0  0  0  0  0
   -2.2482    2.1672   -0.0576 C   0  0  0  0  0  0  0  0  0  0  0  0
   -1.8227   -0.1867    0.0049 C   0  0  0  0  0  0  0  0  0  0  0  0
   -3.0007   -0.3872    0.0638 O   0  0  0  0  0  0  0  0  0  0  0  0
   -0.9136   -1.2797   -0.0187 N   0  0  0  0  0  0  0  0  0  0  0  0
   -1.4410   -2.6291    0.0498 C   0  0  0  0  0  0  0  0  0  0  0  0
    4.1987    0.9219    0.7403 H   0  0  0  0  0  0  0  0  0  0  0  0
    2.6757    0.6159   -1.0163 H   0  0  0  0  0  0  0  0  0  0  0  0
    2.8193    2.1743    0.5580 H   0  0  0  0  0  0  0  0  0  0  0  0
    3.5908   -1.6325   -0.0413 H   0  0  0  0  0  0  0  0  0  0  0  0
   -1.7024    3.1040    0.0191 H   0  0  0  0  0  0  0  0  0  0  0  0
   -2.8274    2.1467   -0.9801 H   0  0  0  0  0  0  0  0  0  0  0  0
   -2.9288    2.0498    0.7837 H   0  0  0  0  0  0  0  0  0  0  0  0
   -1.0706   -3.1382    0.9401 H   0  0  0  0  0  0  0  0  0  0  0  0
   -1.1776   -3.1923   -0.8457 H   0  0  0  0  0  0  0  0  0  0  0  0
   -2.5259   -2.5498    0.1121 H   0  0  0  0  0  0  0  0  0  0  0  0
    1.3871   -2.9093   -0.0839 H   0  0  0  0  0  0  0  0  0  0  0  0
  1  2  1  0  0  0  0
  2  3  1  0  0  0  0
  3  4  4  0  0  0  0
  4  5  1  0  0  0  0
  2  6  1  0  0  0  0
  5  6  4  0  0  0  0
  6  7  1  0  0  0  0
  7  8  2  0  0  0  0
  7  9  1  0  0  0  0
  9 10  1  0  0  0  0
  9 11  1  0  0  0  0
 11 12  2  0  0  0  0
  5 13  4  0  0  0  0
 11 13  1  0  0  0  0
 13 14  1  0  0  0  0
  1 15  1  0  0  0  0
  2 16  1  0  0  0  0
  1 17  1  0  0  0  0
  3 18  1  0  0  0  0
 10 19  1  0  0  0  0
 10 20  1  0  0  0  0
 10 21  1  0  0  0  0
 14 22  1  0  0  0  0
 14 23  1  0  0  0  0
 14 24  1  0  0  0  0
  4 25  1  0  0  0  0
M  CHG  1   1   1
M  END
