          24
 
C              3.38406868        0.58693020        0.01536213
N              2.24494847       -0.28496959       -0.00248049
C              2.24807271       -1.63682666       -0.00815233
N              1.03544483       -2.15187728       -0.00738748
C              0.19025805       -1.10214924        0.00001857
C              0.93003990        0.09045341        0.00422355
C              0.29661758        1.38126637       -0.00224351
O              0.86317912        2.45465790       -0.01367974
N             -1.09658858        1.27030894        0.00327417
C             -1.86781427        2.49882788        0.00146284
C             -1.84825211        0.10018686        0.00473280
O             -3.05396571        0.13735543        0.00789955
N             -1.15974413       -1.11190236        0.00112111
C             -1.89828550       -2.35217490       -0.00217410
H              3.89263766        0.52839012        0.98079633
H              4.08998597        0.30141566       -0.76572858
H              3.05199388        1.61299513       -0.14607297
H              3.14020234       -2.23238989       -0.01424130
H             -1.17473773        3.33950634        0.00885840
H             -2.50335923        2.54177164       -0.88575058
H             -2.51629414        2.53530802        0.87941172
H             -1.63509956       -2.94312816        0.87640470
H             -1.65035447       -2.92982873       -0.89411094
H             -2.96290113       -2.12001494        0.00817848
