          68
 
N             -1.63303986        2.64157227        2.51831753
C             -1.61883960        2.02028018        1.43531273
C             -2.78907097        1.91465657        0.49598545
C             -3.27976739        0.47487329        0.45356624
C             -4.20251517        0.08597161       -0.51949732
C             -4.69591885       -1.20704680       -0.57372798
O             -5.58680717       -1.66405094       -1.47627167
C             -6.12920229       -0.77593950       -2.42489705
C             -4.25460081       -2.16539486        0.37992881
O             -4.78830728       -3.39470128        0.25329171
C             -4.46395255       -4.38628110        1.20028667
C             -3.33856709       -1.77177254        1.34317994
C             -2.85915339       -0.46908376        1.37848979
C             -2.25989129        2.33383036       -0.90014553
C             -1.32510475        1.30296702       -1.55672394
C              0.04632481        1.31633162       -1.00158357
N              0.77875156        0.25887341       -0.72005699
C              2.18224015        0.39671285       -0.40812081
C              3.05520950        0.09011151       -1.64059696
C              4.50218371        0.01082610       -1.24445789
C              5.21021205        1.15541298       -0.90027411
C              6.53460367        1.09392982       -0.50740190
C              7.18796619       -0.13783967       -0.45251073
O              8.47083647       -0.32312741       -0.08441461
C              9.26578337        0.79343463        0.24772580
C              6.47838256       -1.29422990       -0.80057830
C              5.15842291       -1.21581694       -1.18642318
C              0.25131439       -1.08450715       -0.75547239
C             -3.98747286        2.82354116        0.90267462
C             -4.59776915        2.38257545        2.23088933
C             -3.62316512        4.30410732        0.96956169
H             -4.55217190        0.80941388       -1.23697468
H             -6.66212628        0.04961987       -1.94365515
H             -6.83308260       -1.36650975       -3.00795688
H             -5.35663496       -0.37651258       -3.09006167
H             -4.75220194       -4.08321716        2.21111890
H             -5.03632746       -5.26504485        0.90978972
H             -3.39634421       -4.62628326        1.18057127
H             -2.99581592       -2.47276574        2.08655394
H             -2.16921799       -0.19388686        2.16104127
H             -3.11078427        2.49489696       -1.56073688
H             -1.73330228        3.28430199       -0.80743051
H             -1.77306688        0.31158459       -1.50910574
H             -1.24034743        1.57861791       -2.61587552
H             -0.72176293        1.51469315        1.03263405
H              0.53813638        2.27708729       -0.93533764
H              2.43593158       -0.30848928        0.38673398
H              2.38305091        1.41187833       -0.06120659
H              2.90702529        0.87053572       -2.39075211
H              2.74629145       -0.86391163       -2.06834554
H              4.72553676        2.11988644       -0.94858796
H              7.04909450        2.00610171       -0.25152219
H              8.87297660        1.31757051        1.12423768
H              9.34617900        1.49072977       -0.59111551
H             10.25100041        0.39327723        0.47926433
H              6.99172108       -2.23793255       -0.76823186
H              4.63080704       -2.11883102       -1.45594661
H              0.08130241       -1.41574900       -1.78179123
H             -0.69435529       -1.13570295       -0.21167980
H              0.96274301       -1.75583503       -0.27931956
H             -4.74911557        2.69676312        0.12462435
H             -3.87470097        2.50362300        3.03111701
H             -4.91325607        1.34277932        2.19336527
H             -5.46674682        2.99592507        2.45374362
H             -2.84192434        4.46749087        1.70549769
H             -3.29641640        4.68712594        0.00641724
H             -4.49827766        4.87258074        1.27298863
H             -0.77731538        2.66861294        3.06361750
