          71
 
N             -1.71320095        2.84246151        2.48228447
C             -1.70142324        2.16873308        1.43206669
C             -2.86261505        2.05633199        0.48183235
C             -3.34578805        0.61654994        0.44295048
C             -4.28333047        0.22673042       -0.51466313
C             -4.76108360       -1.07320619       -0.57330376
O             -5.66728390       -1.53033445       -1.45687631
C             -6.26650428       -0.63467717       -2.36422436
C             -4.27879763       -2.03916582        0.35598010
O             -4.78543050       -3.27558651        0.21922441
C             -4.39439655       -4.28609309        1.12076539
C             -3.35361819       -1.63991172        1.31017961
C             -2.89914662       -0.33060648        1.35440545
C             -2.31639800        2.48231605       -0.90820173
C             -1.47938066        1.41824903       -1.64078487
C             -0.15335447        1.16049953       -1.02479365
N              0.35462800       -0.03823056       -0.74005186
C              1.75009935       -0.07060366       -0.30926483
C              2.68857287       -0.14192791       -1.52392146
C              4.12156152       -0.11803108       -1.07085151
C              4.91223344        1.01067420       -1.23799608
C              6.22216213        1.03247292       -0.78642047
C              6.77219841       -0.07544759       -0.15297539
O              8.02124516       -0.16308662        0.32827196
C              8.88202862        0.94913164        0.23443757
C              5.96754436       -1.24210553        0.01999836
O              6.56744041       -2.26731399        0.64134543
C              5.86850615       -3.48116985        0.80950250
C              4.66069531       -1.23803796       -0.44631340
C             -0.25585238       -1.20683059       -0.84176971
C             -4.06641541        2.96424077        0.87618237
C             -4.67292301        2.54146329        2.21156031
C             -3.71372774        4.44809726        0.91533835
H             -4.65102978        0.95347529       -1.22030972
H             -6.78960933        0.17258639       -1.84308563
H             -6.98634074       -1.22665790       -2.92594555
H             -5.53152255       -0.21026505       -3.05560696
H             -4.66555676       -4.03058334        2.14922427
H             -4.93875438       -5.17712819        0.81434794
H             -3.31899744       -4.47958757        1.06333724
H             -2.98341914       -2.34460563        2.03640897
H             -2.20058382       -0.05450282        2.12829412
H             -3.15959861        2.74072918       -1.54858467
H             -1.71253176        3.38216226       -0.78236375
H             -2.05679223        0.50100115       -1.73317928
H             -1.30754349        1.80398407       -2.65380336
H             -0.81758504        1.61903628        1.06358362
H              0.51233363        2.00168877       -0.91427572
H              1.91585620       -0.95685234        0.31738001
H              1.97529302        0.82295746        0.27628433
H              2.49245453        0.69949539       -2.19128413
H              2.48712639       -1.06743812       -2.06751185
H              4.51164030        1.88354781       -1.73049966
H              6.81284660        1.92185122       -0.93379269
H              8.47661432        1.81301385        0.76955384
H              9.07324669        1.22124390       -0.80775719
H              9.81383745        0.63769968        0.70269789
H              6.54429458       -4.13416970        1.35807841
H              4.94633934       -3.34337828        1.38207050
H              5.62788113       -3.93398076       -0.15672753
H              4.03225725       -2.10669399       -0.30211534
H              0.27318577       -2.09374802       -0.55559983
H             -1.26772547       -1.28322893       -1.18527139
H             -4.82845624        2.81918459        0.10163834
H             -3.95533747        2.69415839        3.01191714
H             -4.96855146        1.49503658        2.19689598
H             -5.55369953        3.14364181        2.41896925
H             -2.93562577        4.63146313        1.65017031
H             -3.38520589        4.81373305       -0.05373701
H             -4.59403246        5.01610475        1.20514133
H             -0.87004162        2.88178393        3.04502571
