          20
 
C             -4.73098810        0.11705035        1.66010957
C             -5.29410395        0.09020486        0.38913150
C             -5.05790665       -0.97656477       -0.46731008
O             -5.54983367       -1.09890654       -1.72339284
C             -6.52027299       -0.17765774       -2.16332035
C             -4.24170244       -2.05004414       -0.02866214
O             -4.06307467       -3.05174482       -0.92756595
C             -3.48211393       -4.25755162       -0.49190867
C             -3.69109258       -2.00996802        1.24286901
C             -3.93110679       -0.92711478        2.08290956
H             -5.93167792        0.90159784        0.08098171
H             -7.37814398       -0.14545624       -1.48548593
H             -6.84522661       -0.53529467       -3.13846717
H             -6.10290636        0.82930855       -2.27070802
H             -4.02696987       -4.68095293        0.35686459
H             -3.54969912       -4.93826701       -1.33831715
H             -2.42889605       -4.12692783       -0.21904311
H             -3.09058723       -2.83313134        1.59907295
H             -3.50131445       -0.91955674        3.07168471
H             -4.93379871        0.94366507        2.31165829
