          71
 
N             -1.72382764        2.86686052        2.47303794
C             -1.70731857        2.18802612        1.42568548
C             -2.86789056        2.06280118        0.47620583
C             -3.34672040        0.62165832        0.44400967
C             -4.25950914        0.21624129       -0.53097757
C             -4.72390297       -1.08866149       -0.58949153
O             -5.59899228       -1.56552529       -1.49348742
C             -6.16616562       -0.69398410       -2.44368462
C             -4.25854163       -2.04095237        0.36228307
O             -4.74783718       -3.28386805        0.22080040
C             -4.36729299       -4.28456107        1.13756537
C             -3.36403896       -1.62430172        1.33818019
C             -2.91850332       -0.31169993        1.37844961
C             -2.32460017        2.48265407       -0.91608728
C             -1.47500189        1.42281532       -1.64320600
C             -0.15293468        1.16903614       -1.01884303
N              0.33653012       -0.02216497       -0.67494394
C              1.73839004       -0.04948682       -0.26234343
C              2.66348168       -0.08397159       -1.48778715
C              4.10106508       -0.08411639       -1.04840169
C              4.90099389        1.04073819       -1.19612987
C              6.21603941        1.03840993       -0.75881161
C              6.76131202       -0.08976059       -0.15780887
O              8.01387293       -0.20184433        0.30809680
C              8.89910391        0.88872505        0.19147418
C              5.94636197       -1.25170756       -0.00242170
O              6.54115339       -2.29776278        0.58795419
C              5.82620979       -3.50396912        0.74367019
C              4.63590778       -1.22374431       -0.45688345
C             -0.29861640       -1.18071046       -0.70067146
C             -4.07547715        2.96792363        0.86636439
C             -4.67658145        2.55366771        2.20699902
C             -3.73031427        4.45365962        0.89476298
H             -4.61829073        0.93276546       -1.25162345
H             -6.71994062        0.11793147       -1.96330861
H             -6.85464593       -1.30518040       -3.02392034
H             -5.40565348       -0.27578267       -3.11081939
H             -4.65924297       -4.02320617        2.15870881
H             -4.89960904       -5.18171894        0.82784029
H             -3.28955424       -4.47061180        1.10117955
H             -3.00929537       -2.31838986        2.08208010
H             -2.24084077       -0.02035677        2.16528543
H             -3.16934039        2.72794780       -1.55950182
H             -1.72878524        3.38853282       -0.79716967
H             -2.04612986        0.50276702       -1.74723616
H             -1.29535610        1.81607055       -2.65163877
H             -0.81828984        1.64494925        1.06147874
H              0.52719966        2.00323860       -0.94505668
H              1.92026484       -0.94618048        0.34407394
H              1.95953143        0.83353182        0.34073039
H              2.46751042        0.78131765       -2.12338648
H              2.45153831       -0.98857065       -2.06150365
H              4.50366704        1.92958761       -1.66207664
H              6.81336148        1.92595195       -0.88946239
H              8.53653335        1.75869982        0.74700646
H              9.05852689        1.16341661       -0.85532688
H              9.83861150        0.54982894        0.62374029
H              6.50602149       -4.18310638        1.25517771
H              4.92256577       -3.36501435        1.34622655
H              5.54914512       -3.92648757       -0.22677407
H              4.00038956       -2.08934385       -0.32550499
H             -1.32412513       -1.24650775       -1.00411451
H              0.21658196       -2.06650916       -0.38701375
H             -4.83813549        2.81205746        0.09444262
H             -3.96396903        2.73382018        3.00618594
H             -4.95044296        1.50139566        2.20872699
H             -5.57000795        3.14086909        2.40282324
H             -2.96711703        4.64859666        1.64200282
H             -3.38465315        4.81050213       -0.07132873
H             -4.61837378        5.02080517        1.16117200
H             -0.87856466        2.91322934        3.03245230
