           5
 
N             -2.77123324       -4.71351143        0.44825930
C             -3.38633261       -3.78876046       -0.09729337
H             -4.13049963       -4.03634658       -0.84271860
H             -3.27837167       -2.72092506        0.12859756
H             -2.07767530       -4.56257768        1.17628042
