 xtb: 6.6.1 (8d0f1dd)
          04062411153D

 72 73  0     0  0            999 V2000
   -2.1190    2.7223    2.3518 N   0  0  0  0  0  0  0  0  0  0  0  0
   -1.9797    2.1072    1.2748 C   0  0  0  0  0  0  0  0  0  0  0  0
   -3.0733    1.9156    0.2587 C   0  0  0  0  0  0  0  0  0  0  0  0
   -3.6780    0.5243    0.4156 C   0  0  0  0  0  0  0  0  0  0  0  0
   -4.6957    0.1157   -0.4493 C   0  0  0  0  0  0  0  0  0  0  0  0
   -5.1448   -1.1935   -0.4739 C   0  0  0  0  0  0  0  0  0  0  0  0
   -6.1149   -1.6696   -1.2782 O   0  0  0  0  0  0  0  0  0  0  0  0
   -6.8245   -0.7798   -2.1077 C   0  0  0  0  0  0  0  0  0  0  0  0
   -4.5301   -2.1563    0.3705 C   0  0  0  0  0  0  0  0  0  0  0  0
   -4.9325   -3.4316    0.1923 O   0  0  0  0  0  0  0  0  0  0  0  0
   -4.1804   -4.4669    0.7817 C   0  0  0  0  0  0  0  0  0  0  0  0
   -3.5796   -1.7284    1.2836 C   0  0  0  0  0  0  0  0  0  0  0  0
   -3.1642   -0.4044    1.3092 C   0  0  0  0  0  0  0  0  0  0  0  0
   -2.4115    1.9564   -1.1467 C   0  0  0  0  0  0  0  0  0  0  0  0
   -1.4870    0.7644   -1.4447 C   0  0  0  0  0  0  0  0  0  0  0  0
   -0.1552    0.8805   -0.8085 C   0  0  0  0  0  0  0  0  0  0  0  0
    0.5519   -0.1331   -0.3203 N   0  0  0  0  0  0  0  0  0  0  0  0
    1.9507    0.0428   -0.0089 C   0  0  0  0  0  0  0  0  0  0  0  0
    2.8454   -0.3664   -1.1956 C   0  0  0  0  0  0  0  0  0  0  0  0
    4.2893   -0.1422   -0.8472 C   0  0  0  0  0  0  0  0  0  0  0  0
    4.8933    1.0813   -1.0864 C   0  0  0  0  0  0  0  0  0  0  0  0
    6.2145    1.3018   -0.7296 C   0  0  0  0  0  0  0  0  0  0  0  0
    6.9581    0.3015   -0.1199 C   0  0  0  0  0  0  0  0  0  0  0  0
    8.2412    0.4050    0.2721 O   0  0  0  0  0  0  0  0  0  0  0  0
    8.9302    1.6154    0.0576 C   0  0  0  0  0  0  0  0  0  0  0  0
    6.3468   -0.9589    0.1280 C   0  0  0  0  0  0  0  0  0  0  0  0
    7.1400   -1.8762    0.7161 O   0  0  0  0  0  0  0  0  0  0  0  0
    6.6300   -3.1622    0.9757 C   0  0  0  0  0  0  0  0  0  0  0  0
    5.0242   -1.1550   -0.2359 C   0  0  0  0  0  0  0  0  0  0  0  0
    0.0014   -1.4625   -0.2097 C   0  0  0  0  0  0  0  0  0  0  0  0
   -4.1667    3.0198    0.3469 C   0  0  0  0  0  0  0  0  0  0  0  0
   -4.9897    2.8921    1.6245 C   0  0  0  0  0  0  0  0  0  0  0  0
   -3.5996    4.4316    0.2451 C   0  0  0  0  0  0  0  0  0  0  0  0
   -5.1407    0.8323   -1.1191 H   0  0  0  0  0  0  0  0  0  0  0  0
   -7.3493   -0.0199   -1.5211 H   0  0  0  0  0  0  0  0  0  0  0  0
   -7.5517   -1.3929   -2.6363 H   0  0  0  0  0  0  0  0  0  0  0  0
   -6.1685   -0.2938   -2.8364 H   0  0  0  0  0  0  0  0  0  0  0  0
   -4.3318   -4.5162    1.8653 H   0  0  0  0  0  0  0  0  0  0  0  0
   -4.5437   -5.3858    0.3275 H   0  0  0  0  0  0  0  0  0  0  0  0
   -3.1142   -4.3523    0.5657 H   0  0  0  0  0  0  0  0  0  0  0  0
   -3.1502   -2.4266    1.9848 H   0  0  0  0  0  0  0  0  0  0  0  0
   -2.4321   -0.1059    2.0451 H   0  0  0  0  0  0  0  0  0  0  0  0
   -3.2040    1.9644   -1.8941 H   0  0  0  0  0  0  0  0  0  0  0  0
   -1.8440    2.8805   -1.2528 H   0  0  0  0  0  0  0  0  0  0  0  0
   -1.9843   -0.1647   -1.1718 H   0  0  0  0  0  0  0  0  0  0  0  0
   -1.3287    0.7446   -2.5310 H   0  0  0  0  0  0  0  0  0  0  0  0
   -1.0233    1.6487    0.9458 H   0  0  0  0  0  0  0  0  0  0  0  0
    0.3645    1.8227   -0.9067 H   0  0  0  0  0  0  0  0  0  0  0  0
    2.2049   -0.5606    0.8654 H   0  0  0  0  0  0  0  0  0  0  0  0
    2.1400    1.0908    0.2327 H   0  0  0  0  0  0  0  0  0  0  0  0
    2.5723    0.2350   -2.0644 H   0  0  0  0  0  0  0  0  0  0  0  0
    2.6735   -1.4167   -1.4349 H   0  0  0  0  0  0  0  0  0  0  0  0
    4.3390    1.8737   -1.5662 H   0  0  0  0  0  0  0  0  0  0  0  0
    6.6595    2.2614   -0.9352 H   0  0  0  0  0  0  0  0  0  0  0  0
    8.4595    2.4446    0.5943 H   0  0  0  0  0  0  0  0  0  0  0  0
    8.9928    1.8573   -1.0076 H   0  0  0  0  0  0  0  0  0  0  0  0
    9.9322    1.4540    0.4504 H   0  0  0  0  0  0  0  0  0  0  0  0
    7.4495   -3.7153    1.4301 H   0  0  0  0  0  0  0  0  0  0  0  0
    5.7878   -3.1266    1.6743 H   0  0  0  0  0  0  0  0  0  0  0  0
    6.3213   -3.6651    0.0540 H   0  0  0  0  0  0  0  0  0  0  0  0
    4.5527   -2.1089   -0.0583 H   0  0  0  0  0  0  0  0  0  0  0  0
   -0.2406   -1.8753   -1.1910 H   0  0  0  0  0  0  0  0  0  0  0  0
   -0.9091   -1.4459    0.3939 H   0  0  0  0  0  0  0  0  0  0  0  0
    0.7271   -2.1132    0.2712 H   0  0  0  0  0  0  0  0  0  0  0  0
   -4.8360    2.8732   -0.5063 H   0  0  0  0  0  0  0  0  0  0  0  0
   -4.3775    3.1450    2.4831 H   0  0  0  0  0  0  0  0  0  0  0  0
   -5.3612    1.8767    1.7493 H   0  0  0  0  0  0  0  0  0  0  0  0
   -5.8361    3.5724    1.5879 H   0  0  0  0  0  0  0  0  0  0  0  0
   -2.9384    4.6400    1.0810 H   0  0  0  0  0  0  0  0  0  0  0  0
   -3.0618    4.5941   -0.6831 H   0  0  0  0  0  0  0  0  0  0  0  0
   -4.4192    5.1442    0.2788 H   0  0  0  0  0  0  0  0  0  0  0  0
   -1.3143    2.8034    2.9651 H   0  0  0  0  0  0  0  0  0  0  0  0
  1  2  2  0  0  0  0
  2  3  1  0  0  0  0
  3  4  1  0  0  0  0
  4  5  4  0  0  0  0
  5  6  4  0  0  0  0
  6  7  1  0  0  0  0
  7  8  1  0  0  0  0
  6  9  4  0  0  0  0
  9 10  1  0  0  0  0
 10 11  1  0  0  0  0
  9 12  4  0  0  0  0
  4 13  4  0  0  0  0
 12 13  4  0  0  0  0
  3 14  1  0  0  0  0
 14 15  1  0  0  0  0
 15 16  1  0  0  0  0
 16 17  4  0  0  0  0
 17 18  1  0  0  0  0
 18 19  1  0  0  0  0
 19 20  1  0  0  0  0
 20 21  4  0  0  0  0
 21 22  4  0  0  0  0
 22 23  4  0  0  0  0
 23 24  1  0  0  0  0
 24 25  1  0  0  0  0
 23 26  4  0  0  0  0
 26 27  1  0  0  0  0
 27 28  1  0  0  0  0
 20 29  4  0  0  0  0
 26 29  4  0  0  0  0
 17 30  1  0  0  0  0
  3 31  1  0  0  0  0
 31 32  1  0  0  0  0
 31 33  1  0  0  0  0
  5 34  1  0  0  0  0
  8 35  1  0  0  0  0
  8 36  1  0  0  0  0
  8 37  1  0  0  0  0
 11 38  1  0  0  0  0
 11 39  1  0  0  0  0
 11 40  1  0  0  0  0
 12 41  1  0  0  0  0
 13 42  1  0  0  0  0
 14 43  1  0  0  0  0
 14 44  1  0  0  0  0
 15 45  1  0  0  0  0
 15 46  1  0  0  0  0
  2 47  1  0  0  0  0
 16 48  1  0  0  0  0
 18 49  1  0  0  0  0
 18 50  1  0  0  0  0
 19 51  1  0  0  0  0
 19 52  1  0  0  0  0
 21 53  1  0  0  0  0
 22 54  1  0  0  0  0
 25 55  1  0  0  0  0
 25 56  1  0  0  0  0
 25 57  1  0  0  0  0
 28 58  1  0  0  0  0
 28 59  1  0  0  0  0
 28 60  1  0  0  0  0
 29 61  1  0  0  0  0
 30 62  1  0  0  0  0
 30 63  1  0  0  0  0
 30 64  1  0  0  0  0
 31 65  1  0  0  0  0
 32 66  1  0  0  0  0
 32 67  1  0  0  0  0
 32 68  1  0  0  0  0
 33 69  1  0  0  0  0
 33 70  1  0  0  0  0
 33 71  1  0  0  0  0
  1 72  1  0  0  0  0
M  CHG  1   1   1
M  END
