          22
 
C              3.55948184       -0.50101183       -2.75150712
C              4.60797045       -0.35117109       -1.87584239
C              5.19274606        0.92416987       -1.63662148
C              6.26923299        1.07024615       -0.79994511
C              6.81662204       -0.03193843       -0.13591635
O              7.87182532       -0.00490150        0.68525641
C              8.57274494        1.20117912        0.88921082
C              6.22751323       -1.32437738       -0.32900242
O              6.81399940       -2.31352181        0.37703794
C              6.35574151       -3.63438847        0.21079370
C              5.16136680       -1.46682928       -1.17940152
H              3.14925246        0.34351217       -3.27432608
H              3.14923411       -1.46919445       -2.97708554
H              4.78740848        1.78349543       -2.14741802
H              6.70085232        2.04830749       -0.65805647
H              7.95150825        1.94347182        1.39981960
H              8.93848860        1.61657033       -0.05399675
H              9.41968683        0.94352043        1.52279063
H              6.98922642       -4.24675047        0.84942524
H              5.31293282       -3.73938432        0.52703907
H              6.45761165       -3.96505454       -0.82700142
H              4.72016717       -2.43464243       -1.35512424
