          21
 
C              3.32636921        1.02438162        0.05473083
N              2.39072871       -0.06638680       -0.01321518
C              2.67301581       -1.35490223       -0.12020093
N              1.53179432       -2.07686946       -0.12350441
C              0.48032326       -1.20645653       -0.01366424
C              1.03059346        0.06724920        0.05482392
C              0.15258725        1.25667626        0.12439297
O              0.58771382        2.39032298        0.13548655
N             -1.14171573        0.91317220        0.15176397
C             -1.71606546       -0.28032873        0.12320992
O             -2.89894879       -0.49077245        0.16210073
N             -0.82938365       -1.44890381        0.02188115
C             -1.39817084       -2.77442124       -0.01497782
H              3.84801575        1.01360534        1.01283459
H              4.05995576        0.94755464       -0.74678211
H              2.77327235        1.96045296       -0.03435077
H              3.65858129       -1.77217448       -0.19410794
H             -1.03024356       -3.37545829        0.81790270
H             -1.17208245       -3.26823012       -0.96167176
H             -2.47871242       -2.65993517        0.07645685
H              1.47590241       -3.08257020       -0.20076514
