 xtb: 6.6.1 (8d0f1dd)
          06052419593D

 25 25  0     0  0            999 V2000
    3.4379    0.9096    0.0697 C   0  0  0  0  0  0  0  0  0  0  0  0
    2.5024   -0.1815    0.0042 N   0  0  0  0  0  0  0  0  0  0  0  0
    2.7840   -1.4677   -0.1290 C   0  0  0  0  0  0  0  0  0  0  0  0
    1.6439   -2.1914   -0.1197 N   0  0  0  0  0  0  0  0  0  0  0  0
    0.5938   -1.3245    0.0260 C   0  0  0  0  0  0  0  0  0  0  0  0
    1.1438   -0.0511    0.1030 C   0  0  0  0  0  0  0  0  0  0  0  0
    0.2660    1.1357    0.2098 C   0  0  0  0  0  0  0  0  0  0  0  0
    0.6998    2.2697    0.2296 O   0  0  0  0  0  0  0  0  0  0  0  0
   -1.0270    0.7897    0.2590 N   0  0  0  0  0  0  0  0  0  0  0  0
   -3.6427    3.6564   -0.2948 C   0  0  0  0  0  0  0  0  0  0  0  0
   -1.6003   -0.4041    0.2238 C   0  0  0  0  0  0  0  0  0  0  0  0
   -2.7819   -0.6171    0.2842 O   0  0  0  0  0  0  0  0  0  0  0  0
   -0.7145   -1.5696    0.0853 N   0  0  0  0  0  0  0  0  0  0  0  0
   -1.2823   -2.8952    0.0396 C   0  0  0  0  0  0  0  0  0  0  0  0
    3.9796    0.8846    1.0163 H   0  0  0  0  0  0  0  0  0  0  0  0
    4.1545    0.8466   -0.7483 H   0  0  0  0  0  0  0  0  0  0  0  0
    2.8818    1.8461    0.0070 H   0  0  0  0  0  0  0  0  0  0  0  0
    3.7683   -1.8822   -0.2302 H   0  0  0  0  0  0  0  0  0  0  0  0
   -2.7527    4.2546   -0.2595 H   0  0  0  0  0  0  0  0  0  0  0  0
   -4.0441    3.3452   -1.2396 H   0  0  0  0  0  0  0  0  0  0  0  0
   -4.1050    3.3269    0.6151 H   0  0  0  0  0  0  0  0  0  0  0  0
   -0.8961   -3.5087    0.8549 H   0  0  0  0  0  0  0  0  0  0  0  0
   -1.0756   -3.3737   -0.9194 H   0  0  0  0  0  0  0  0  0  0  0  0
   -2.3608   -2.7839    0.1555 H   0  0  0  0  0  0  0  0  0  0  0  0
    1.5877   -3.1958   -0.2116 H   0  0  0  0  0  0  0  0  0  0  0  0
  1  2  1  0  0  0  0
  2  3  4  0  0  0  0
  3  4  4  0  0  0  0
  4  5  1  0  0  0  0
  2  6  1  0  0  0  0
  5  6  4  0  0  0  0
  6  7  1  0  0  0  0
  7  8  2  0  0  0  0
  7  9  4  0  0  0  0
  9 11  4  0  0  0  0
 11 12  2  0  0  0  0
  5 13  4  0  0  0  0
 11 13  1  0  0  0  0
 13 14  1  0  0  0  0
  1 15  1  0  0  0  0
  1 16  1  0  0  0  0
  1 17  1  0  0  0  0
  3 18  1  0  0  0  0
 10 19  1  0  0  0  0
 10 20  1  0  0  0  0
 10 21  1  0  0  0  0
 14 22  1  0  0  0  0
 14 23  1  0  0  0  0
 14 24  1  0  0  0  0
  4 25  1  0  0  0  0
M  CHG  1   1   1
M  END
