 xtb: 6.6.1 (8d0f1dd)
          06052419593D

 25 24  0     0  0            999 V2000
    3.2968    1.1245    0.0167 C   0  0  0  0  0  0  0  0  0  0  0  0
    2.3320    0.0552   -0.0018 N   0  0  0  0  0  0  0  0  0  0  0  0
    2.6501   -1.2335   -0.0131 C   0  0  0  0  0  0  0  0  0  0  0  0
    1.5406   -1.9779   -0.0034 N   0  0  0  0  0  0  0  0  0  0  0  0
    0.4212   -1.1310    0.0144 C   0  0  0  0  0  0  0  0  0  0  0  0
    0.9714    0.1819    0.0158 C   0  0  0  0  0  0  0  0  0  0  0  0
    0.2384    1.4561    0.0034 C   0  0  0  0  0  0  0  0  0  0  0  0
    0.8187    2.5454   -0.0481 O   0  0  0  0  0  0  0  0  0  0  0  0
   -1.0765    1.2981    0.0477 N   0  0  0  0  0  0  0  0  0  0  0  0
   -2.0164    2.3242    0.0433 C   0  0  0  0  0  0  0  0  0  0  0  0
   -4.3725    0.2639   -0.2532 C   0  0  0  0  0  0  0  0  0  0  0  0
   -4.0173   -0.7913   -0.0860 O   0  0  0  0  0  0  0  0  0  0  0  0
   -0.8159   -1.4653    0.0228 N   0  0  0  0  0  0  0  0  0  0  0  0
   -1.3138   -2.7850    0.0262 C   0  0  0  0  0  0  0  0  0  0  0  0
    3.7908    1.1655    0.9884 H   0  0  0  0  0  0  0  0  0  0  0  0
    4.0469    0.9642   -0.7564 H   0  0  0  0  0  0  0  0  0  0  0  0
    2.7815    2.0712   -0.1544 H   0  0  0  0  0  0  0  0  0  0  0  0
    3.6531   -1.6162   -0.0312 H   0  0  0  0  0  0  0  0  0  0  0  0
   -1.5539    3.3213    0.0142 H   0  0  0  0  0  0  0  0  0  0  0  0
   -2.6803    2.2064   -0.8225 H   0  0  0  0  0  0  0  0  0  0  0  0
   -2.6462    2.2425    0.9369 H   0  0  0  0  0  0  0  0  0  0  0  0
   -0.9881   -3.3432    0.9121 H   0  0  0  0  0  0  0  0  0  0  0  0
   -1.0047   -3.3403   -0.8675 H   0  0  0  0  0  0  0  0  0  0  0  0
   -2.4021   -2.7317    0.0368 H   0  0  0  0  0  0  0  0  0  0  0  0
    1.5067   -2.9867   -0.0099 H   0  0  0  0  0  0  0  0  0  0  0  0
  1  2  1  0  0  0  0
  2  3  4  0  0  0  0
  3  4  4  0  0  0  0
  4  5  1  0  0  0  0
  2  6  4  0  0  0  0
  5  6  4  0  0  0  0
  6  7  1  0  0  0  0
  7  8  2  0  0  0  0
  7  9  4  0  0  0  0
  9 10  1  0  0  0  0
 11 12  3  0  0  0  0
  5 13  2  0  0  0  0
 13 14  1  0  0  0  0
  1 15  1  0  0  0  0
  1 16  1  0  0  0  0
  1 17  1  0  0  0  0
  3 18  1  0  0  0  0
 10 19  1  0  0  0  0
 10 20  1  0  0  0  0
 10 21  1  0  0  0  0
 14 22  1  0  0  0  0
 14 23  1  0  0  0  0
 14 24  1  0  0  0  0
  4 25  1  0  0  0  0
M  CHG  1   1   1
M  END
