          24
 
C              3.15281105        1.07570996        0.01350937
N              2.28412779        0.07162935        0.01248465
C              2.54433725       -1.25688400        0.01773257
N              1.37812390       -1.95747327        0.01512768
C              0.34848333       -1.06802309        0.01043841
C              0.89678877        0.20332330        0.00676002
C              0.07371538        1.39136775       -0.00033564
O              0.47488460        2.53012388       -0.01722199
N             -1.28414986        1.06440902        0.01496296
C             -2.23718995        2.16558329        0.03027494
C             -1.85513024       -0.19491425        0.01091004
O             -3.04193391       -0.36321022        0.01370092
N             -0.97378494       -1.29886310        0.00391332
C             -1.52616973       -2.63868681       -0.00569730
H              4.20390168        0.86028925        0.03307640
H              2.77125141        2.08206250        0.00104743
H              3.52079078       -1.69444275        0.03165752
H             -1.67821847        3.09780225       -0.00432554
H             -2.90465715        2.08979377       -0.82797202
H             -2.83999761        2.12020014        0.93769990
H             -1.20633644       -3.19071886        0.87840297
H             -1.22524640       -3.16892510       -0.90953538
H             -2.61137532       -2.54514590        0.00638017
H              1.31186048       -2.96468999        0.02423261
