 xtb: 6.6.1 (8d0f1dd)
          06052419583D

 25 25  0     0  0            999 V2000
    3.1736    0.8637    0.0549 C   0  0  0  0  0  0  0  0  0  0  0  0
    2.2685   -0.1091    0.0298 N   0  0  0  0  0  0  0  0  0  0  0  0
    2.4879   -1.4459    0.0089 C   0  0  0  0  0  0  0  0  0  0  0  0
    1.2957   -2.1122   -0.0086 N   0  0  0  0  0  0  0  0  0  0  0  0
    0.2973   -1.1920   -0.0006 C   0  0  0  0  0  0  0  0  0  0  0  0
    0.8860    0.0663    0.0244 C   0  0  0  0  0  0  0  0  0  0  0  0
    0.1048    1.2740    0.0411 C   0  0  0  0  0  0  0  0  0  0  0  0
    0.5364    2.4067    0.0587 O   0  0  0  0  0  0  0  0  0  0  0  0
   -1.2691    0.9938    0.0345 N   0  0  0  0  0  0  0  0  0  0  0  0
   -2.1818    2.1238    0.0687 C   0  0  0  0  0  0  0  0  0  0  0  0
   -1.8769   -0.2479    0.0091 C   0  0  0  0  0  0  0  0  0  0  0  0
   -3.0733   -0.3745    0.0047 O   0  0  0  0  0  0  0  0  0  0  0  0
   -1.0368   -1.3778   -0.0112 N   0  0  0  0  0  0  0  0  0  0  0  0
   -1.6323   -2.6979   -0.0373 C   0  0  0  0  0  0  0  0  0  0  0  0
    2.8333    1.8835    0.0703 H   0  0  0  0  0  0  0  0  0  0  0  0
    4.2169    0.6110    0.0379 H   0  0  0  0  0  0  0  0  0  0  0  0
    4.1098    4.0435   -0.4338 H   0  0  0  0  0  0  0  0  0  0  0  0
    3.4484   -1.9154    0.0130 H   0  0  0  0  0  0  0  0  0  0  0  0
   -1.5896    3.0364    0.1038 H   0  0  0  0  0  0  0  0  0  0  0  0
   -2.8162    2.1194   -0.8192 H   0  0  0  0  0  0  0  0  0  0  0  0
   -2.8258    2.0551    0.9459 H   0  0  0  0  0  0  0  0  0  0  0  0
   -1.3265   -3.2725    0.8380 H   0  0  0  0  0  0  0  0  0  0  0  0
   -1.3511   -3.2266   -0.9494 H   0  0  0  0  0  0  0  0  0  0  0  0
   -2.7149   -2.5717   -0.0199 H   0  0  0  0  0  0  0  0  0  0  0  0
    1.1962   -3.1156   -0.0326 H   0  0  0  0  0  0  0  0  0  0  0  0
  1  2  4  0  0  0  0
  2  3  4  0  0  0  0
  3  4  4  0  0  0  0
  4  5  4  0  0  0  0
  2  6  1  0  0  0  0
  5  6  4  0  0  0  0
  6  7  1  0  0  0  0
  7  8  2  0  0  0  0
  7  9  1  0  0  0  0
  9 10  1  0  0  0  0
  9 11  1  0  0  0  0
 11 12  2  0  0  0  0
  5 13  4  0  0  0  0
 11 13  1  0  0  0  0
 13 14  1  0  0  0  0
  1 15  1  0  0  0  0
  1 16  1  0  0  0  0
  3 18  1  0  0  0  0
 10 19  1  0  0  0  0
 10 20  1  0  0  0  0
 10 21  1  0  0  0  0
 14 22  1  0  0  0  0
 14 23  1  0  0  0  0
 14 24  1  0  0  0  0
  4 25  1  0  0  0  0
M  CHG  1   1   1
M  END
