 xtb: 6.6.1 (8d0f1dd)
          06052419593D

 25 26  0     0  0            999 V2000
    3.2320    1.2286    0.3190 C   0  0  0  0  0  0  0  0  0  0  0  0
    2.2414    0.2479    0.0078 N   0  0  0  0  0  0  0  0  0  0  0  0
    2.1839   -0.9888    0.7454 C   0  0  0  0  0  0  0  0  0  0  0  0
    1.2521   -1.8930    0.0951 N   0  0  0  0  0  0  0  0  0  0  0  0
    0.2706   -0.9782    0.0780 C   0  0  0  0  0  0  0  0  0  0  0  0
    1.0653    0.0386    0.8284 C   0  0  0  0  0  0  0  0  0  0  0  0
   -1.5969    1.6493   -1.6830 C   0  0  0  0  0  0  0  0  0  0  0  0
   -1.6636    1.9505   -2.7896 O   0  0  0  0  0  0  0  0  0  0  0  0
   -1.4824    1.1605   -0.5294 N   0  0  0  0  0  0  0  0  0  0  0  0
   -1.2510    1.9456    0.6877 C   0  0  0  0  0  0  0  0  0  0  0  0
   -2.0001   -0.2504   -0.3627 C   0  0  0  0  0  0  0  0  0  0  0  0
   -3.1763   -0.4443   -0.4257 O   0  0  0  0  0  0  0  0  0  0  0  0
   -1.0206   -1.1993   -0.2441 N   0  0  0  0  0  0  0  0  0  0  0  0
   -1.4448   -2.5892   -0.4331 C   0  0  0  0  0  0  0  0  0  0  0  0
    3.4860    1.2643    1.3839 H   0  0  0  0  0  0  0  0  0  0  0  0
    4.1309    0.9950   -0.2507 H   0  0  0  0  0  0  0  0  0  0  0  0
    2.8619    2.2046    0.0097 H   0  0  0  0  0  0  0  0  0  0  0  0
    2.9382   -1.3296    1.4276 H   0  0  0  0  0  0  0  0  0  0  0  0
   -0.9910    2.9680    0.4233 H   0  0  0  0  0  0  0  0  0  0  0  0
   -2.1572    1.9414    1.2930 H   0  0  0  0  0  0  0  0  0  0  0  0
   -0.4195    1.4808    1.2343 H   0  0  0  0  0  0  0  0  0  0  0  0
   -1.0572   -3.2046    0.3792 H   0  0  0  0  0  0  0  0  0  0  0  0
   -1.0834   -2.9642   -1.3928 H   0  0  0  0  0  0  0  0  0  0  0  0
   -2.5330   -2.6245   -0.4237 H   0  0  0  0  0  0  0  0  0  0  0  0
    1.3753   -2.7908   -0.3462 H   0  0  0  0  0  0  0  0  0  0  0  0
  1  2  1  0  0  0  0
  2  3  1  0  0  0  0
  3  4  1  0  0  0  0
  4  5  4  0  0  0  0
  2  6  1  0  0  0  0
  3  6  1  0  0  0  0
  5  6  1  0  0  0  0
  7  8  2  0  0  0  0
  7  9  2  0  0  0  0
  9 10  1  0  0  0  0
  9 11  1  0  0  0  0
 11 12  2  0  0  0  0
  5 13  4  0  0  0  0
 11 13  1  0  0  0  0
 13 14  1  0  0  0  0
  1 15  1  0  0  0  0
  1 16  1  0  0  0  0
  1 17  1  0  0  0  0
  3 18  1  0  0  0  0
 10 19  1  0  0  0  0
 10 20  1  0  0  0  0
 10 21  1  0  0  0  0
 14 22  1  0  0  0  0
 14 23  1  0  0  0  0
 14 24  1  0  0  0  0
  4 25  1  0  0  0  0
M  CHG  1   1   1
M  END
