 xtb: 6.6.1 (8d0f1dd)
          06052419583D

 25 26  0     0  0            999 V2000
    3.1859    1.2964    0.0102 C   0  0  0  0  0  0  0  0  0  0  0  0
    2.3266    0.1550    0.0600 N   0  0  0  0  0  0  0  0  0  0  0  0
    1.1098   -2.2533   -0.9306 C   0  0  0  0  0  0  0  0  0  0  0  0
    1.2378   -2.3560    0.4170 N   0  0  0  0  0  0  0  0  0  0  0  0
    0.4074   -1.2488   -0.0707 C   0  0  0  0  0  0  0  0  0  0  0  0
    0.9991    0.0989    0.0539 C   0  0  0  0  0  0  0  0  0  0  0  0
    0.1569    1.2815    0.0979 C   0  0  0  0  0  0  0  0  0  0  0  0
    0.5757    2.4193    0.1813 O   0  0  0  0  0  0  0  0  0  0  0  0
   -1.2175    1.0415    0.0237 N   0  0  0  0  0  0  0  0  0  0  0  0
   -2.1047    2.1982   -0.0128 C   0  0  0  0  0  0  0  0  0  0  0  0
   -1.8502   -0.1607    0.0405 C   0  0  0  0  0  0  0  0  0  0  0  0
   -3.0403   -0.2932    0.0265 O   0  0  0  0  0  0  0  0  0  0  0  0
   -1.0089   -1.3388    0.0894 N   0  0  0  0  0  0  0  0  0  0  0  0
   -1.6453   -2.4974    0.2121 C   0  0  0  0  0  0  0  0  0  0  0  0
    3.8216    1.3190    0.8967 H   0  0  0  0  0  0  0  0  0  0  0  0
    3.8365    1.2124   -0.8622 H   0  0  0  0  0  0  0  0  0  0  0  0
    2.6082    2.2163   -0.0427 H   0  0  0  0  0  0  0  0  0  0  0  0
    2.7978   -0.7464    0.0690 H   0  0  0  0  0  0  0  0  0  0  0  0
   -1.4965    3.0905   -0.1413 H   0  0  0  0  0  0  0  0  0  0  0  0
   -2.8084    2.0869   -0.8375 H   0  0  0  0  0  0  0  0  0  0  0  0
   -2.6707    2.2656    0.9177 H   0  0  0  0  0  0  0  0  0  0  0  0
   -1.1190   -3.4307    0.2202 H   0  0  0  0  0  0  0  0  0  0  0  0
    0.8114   -2.9502   -1.6984 H   0  0  0  0  0  0  0  0  0  0  0  0
   -2.7178   -2.4662    0.2834 H   0  0  0  0  0  0  0  0  0  0  0  0
    0.9652   -3.1216    1.0277 H   0  0  0  0  0  0  0  0  0  0  0  0
  1  2  1  0  0  0  0
  3  4  4  0  0  0  0
  3  5  1  0  0  0  0
  4  5  1  0  0  0  0
  2  6  4  0  0  0  0
  5  6  1  0  0  0  0
  6  7  1  0  0  0  0
  7  8  2  0  0  0  0
  7  9  1  0  0  0  0
  9 10  1  0  0  0  0
  9 11  1  0  0  0  0
 11 12  2  0  0  0  0
  5 13  1  0  0  0  0
 11 13  1  0  0  0  0
 13 14  4  0  0  0  0
  1 15  1  0  0  0  0
  1 16  1  0  0  0  0
  1 17  1  0  0  0  0
  2 18  1  0  0  0  0
 10 19  1  0  0  0  0
 10 20  1  0  0  0  0
 10 21  1  0  0  0  0
 14 22  1  0  0  0  0
  3 23  1  0  0  0  0
 14 24  1  0  0  0  0
  4 25  1  0  0  0  0
M  CHG  1   1   1
M  END
