 xtb: 6.6.1 (8d0f1dd)
          06052420003D

 25 25  0     0  0            999 V2000
    3.2079    0.9856    0.2277 C   0  0  0  0  0  0  0  0  0  0  0  0
    3.1683    1.5506   -1.0256 N   0  0  0  0  0  0  0  0  0  0  0  0
    2.3414   -0.2509    0.2415 C   0  0  0  0  0  0  0  0  0  0  0  0
    0.8032   -2.6315   -0.4385 N   0  0  0  0  0  0  0  0  0  0  0  0
    0.2757   -1.5226   -0.1261 C   0  0  0  0  0  0  0  0  0  0  0  0
    1.0112   -0.2518    0.0227 C   0  0  0  0  0  0  0  0  0  0  0  0
    0.2301    1.0074   -0.0341 C   0  0  0  0  0  0  0  0  0  0  0  0
    0.7577    2.0944   -0.1275 O   0  0  0  0  0  0  0  0  0  0  0  0
   -1.1298    0.8738    0.0848 N   0  0  0  0  0  0  0  0  0  0  0  0
   -1.9513    2.0712    0.1155 C   0  0  0  0  0  0  0  0  0  0  0  0
   -1.8231   -0.3296    0.1954 C   0  0  0  0  0  0  0  0  0  0  0  0
   -3.0110   -0.3443    0.3774 O   0  0  0  0  0  0  0  0  0  0  0  0
   -1.0805   -1.4901    0.0563 N   0  0  0  0  0  0  0  0  0  0  0  0
   -1.7941   -2.7485    0.0180 C   0  0  0  0  0  0  0  0  0  0  0  0
    2.8731    1.6803    1.0222 H   0  0  0  0  0  0  0  0  0  0  0  0
    4.2450    0.6769    0.4427 H   0  0  0  0  0  0  0  0  0  0  0  0
    2.7698    2.4645   -1.1942 H   0  0  0  0  0  0  0  0  0  0  0  0
    2.8609   -1.1882    0.3873 H   0  0  0  0  0  0  0  0  0  0  0  0
   -1.2997    2.9419    0.1014 H   0  0  0  0  0  0  0  0  0  0  0  0
   -2.6171    2.0864   -0.7491 H   0  0  0  0  0  0  0  0  0  0  0  0
   -2.5699    2.0694    1.0144 H   0  0  0  0  0  0  0  0  0  0  0  0
   -1.4610   -3.3902    0.8356 H   0  0  0  0  0  0  0  0  0  0  0  0
   -1.5786   -3.2612   -0.9214 H   0  0  0  0  0  0  0  0  0  0  0  0
   -2.8609   -2.5514    0.1105 H   0  0  0  0  0  0  0  0  0  0  0  0
    1.7930   -2.7239   -0.6058 H   0  0  0  0  0  0  0  0  0  0  0  0
  1  2  1  0  0  0  0
  1  3  1  0  0  0  0
  4  5  2  0  0  0  0
  3  6  2  0  0  0  0
  5  6  1  0  0  0  0
  6  7  1  0  0  0  0
  7  8  2  0  0  0  0
  7  9  1  0  0  0  0
  9 10  1  0  0  0  0
  9 11  1  0  0  0  0
 11 12  2  0  0  0  0
  5 13  1  0  0  0  0
 11 13  1  0  0  0  0
 13 14  1  0  0  0  0
  1 15  1  0  0  0  0
  1 16  1  0  0  0  0
  2 17  1  0  0  0  0
  3 18  1  0  0  0  0
 10 19  1  0  0  0  0
 10 20  1  0  0  0  0
 10 21  1  0  0  0  0
 14 22  1  0  0  0  0
 14 23  1  0  0  0  0
 14 24  1  0  0  0  0
  4 25  1  0  0  0  0
M  CHG  1   1   1
M  END
