 xtb: 6.6.1 (8d0f1dd)
          06052419593D

 25 25  0     0  0            999 V2000
    3.2315    1.1866   -0.0137 C   0  0  0  0  0  0  0  0  0  0  0  0
    2.2753    0.1120    0.0278 N   0  0  0  0  0  0  0  0  0  0  0  0
    2.5445   -1.1872    0.0737 C   0  0  0  0  0  0  0  0  0  0  0  0
    1.3978   -1.8966    0.1355 N   0  0  0  0  0  0  0  0  0  0  0  0
    0.3537   -1.0058    0.1250 C   0  0  0  0  0  0  0  0  0  0  0  0
    0.9103    0.2654    0.0591 C   0  0  0  0  0  0  0  0  0  0  0  0
    0.1011    1.4649    0.0182 C   0  0  0  0  0  0  0  0  0  0  0  0
    0.5179    2.5993   -0.0346 O   0  0  0  0  0  0  0  0  0  0  0  0
   -1.2623    1.1542    0.0460 N   0  0  0  0  0  0  0  0  0  0  0  0
   -2.2003    2.2734   -0.0074 C   0  0  0  0  0  0  0  0  0  0  0  0
   -1.8574   -0.0763    0.0914 C   0  0  0  0  0  0  0  0  0  0  0  0
   -3.0409   -0.2495    0.0844 O   0  0  0  0  0  0  0  0  0  0  0  0
   -0.9793   -1.2402    0.1597 N   0  0  0  0  0  0  0  0  0  0  0  0
   -1.5531   -2.4496    0.2417 C   0  0  0  0  0  0  0  0  0  0  0  0
    3.7614    1.2565    0.9373 H   0  0  0  0  0  0  0  0  0  0  0  0
    3.9574    1.0177   -0.8082 H   0  0  0  0  0  0  0  0  0  0  0  0
    2.7003    2.1215   -0.1904 H   0  0  0  0  0  0  0  0  0  0  0  0
    3.5260   -1.6201    0.0611 H   0  0  0  0  0  0  0  0  0  0  0  0
   -1.6243    3.1955   -0.0045 H   0  0  0  0  0  0  0  0  0  0  0  0
   -2.8024    2.2079   -0.9125 H   0  0  0  0  0  0  0  0  0  0  0  0
   -2.8638    2.2379    0.8554 H   0  0  0  0  0  0  0  0  0  0  0  0
   -0.9545   -3.3378    0.2871 H   0  0  0  0  0  0  0  0  0  0  0  0
   -1.6864   -4.8202   -1.6192 H   0  0  0  0  0  0  0  0  0  0  0  0
   -2.6264   -2.4872    0.2488 H   0  0  0  0  0  0  0  0  0  0  0  0
    1.3345   -2.9039    0.1694 H   0  0  0  0  0  0  0  0  0  0  0  0
  1  2  1  0  0  0  0
  2  3  4  0  0  0  0
  3  4  4  0  0  0  0
  4  5  1  0  0  0  0
  2  6  1  0  0  0  0
  5  6  4  0  0  0  0
  6  7  1  0  0  0  0
  7  8  2  0  0  0  0
  7  9  1  0  0  0  0
  9 10  1  0  0  0  0
  9 11  1  0  0  0  0
 11 12  2  0  0  0  0
  5 13  1  0  0  0  0
 11 13  1  0  0  0  0
 13 14  4  0  0  0  0
  1 15  1  0  0  0  0
  1 16  1  0  0  0  0
  1 17  1  0  0  0  0
  3 18  1  0  0  0  0
 10 19  1  0  0  0  0
 10 20  1  0  0  0  0
 10 21  1  0  0  0  0
 14 22  1  0  0  0  0
 14 24  1  0  0  0  0
  4 25  1  0  0  0  0
M  CHG  1   1   1
M  END
