 xtb: 6.6.1 (8d0f1dd)
          06052419573D

 25 26  0     0  0            999 V2000
    3.2236    1.1330    0.1090 C   0  0  0  0  0  0  0  0  0  0  0  0
    2.2249    0.0993    0.0734 N   0  0  0  0  0  0  0  0  0  0  0  0
    2.4472   -1.2021    0.0373 C   0  0  0  0  0  0  0  0  0  0  0  0
    1.2722   -1.8670    0.0480 N   0  0  0  0  0  0  0  0  0  0  0  0
    0.2536   -0.9540    0.0990 C   0  0  0  0  0  0  0  0  0  0  0  0
    0.8621    0.3126    0.1030 C   0  0  0  0  0  0  0  0  0  0  0  0
    0.1674    1.5655   -0.1172 C   0  0  0  0  0  0  0  0  0  0  0  0
    0.6740    2.6473   -0.3067 O   0  0  0  0  0  0  0  0  0  0  0  0
   -1.2287    1.3350   -0.1605 N   0  0  0  0  0  0  0  0  0  0  0  0
   -2.0866    2.1798   -0.5718 C   0  0  0  0  0  0  0  0  0  0  0  0
   -1.9356   -0.1465    0.6821 C   0  0  0  0  0  0  0  0  0  0  0  0
   -3.1178   -0.1954    0.4384 O   0  0  0  0  0  0  0  0  0  0  0  0
   -1.0500   -1.1973    0.1427 N   0  0  0  0  0  0  0  0  0  0  0  0
   -1.6422   -2.4657   -0.2093 C   0  0  0  0  0  0  0  0  0  0  0  0
    3.4957    1.3557    1.1429 H   0  0  0  0  0  0  0  0  0  0  0  0
    4.1134    0.8143   -0.4302 H   0  0  0  0  0  0  0  0  0  0  0  0
    2.8176    2.0402   -0.3384 H   0  0  0  0  0  0  0  0  0  0  0  0
    3.4121   -1.6688    0.0008 H   0  0  0  0  0  0  0  0  0  0  0  0
   -1.8109    3.1646   -0.9274 H   0  0  0  0  0  0  0  0  0  0  0  0
   -3.1247    1.8691   -0.5458 H   0  0  0  0  0  0  0  0  0  0  0  0
   -1.5306    0.2001    1.6518 H   0  0  0  0  0  0  0  0  0  0  0  0
   -1.5293   -3.2005    0.5910 H   0  0  0  0  0  0  0  0  0  0  0  0
   -1.2058   -2.8475   -1.1319 H   0  0  0  0  0  0  0  0  0  0  0  0
   -2.7067   -2.2826   -0.3631 H   0  0  0  0  0  0  0  0  0  0  0  0
    1.1655   -2.8708    0.0141 H   0  0  0  0  0  0  0  0  0  0  0  0
  1  2  1  0  0  0  0
  2  3  4  0  0  0  0
  3  4  4  0  0  0  0
  4  5  1  0  0  0  0
  2  6  1  0  0  0  0
  5  6  4  0  0  0  0
  6  7  1  0  0  0  0
  7  8  2  0  0  0  0
  7  9  1  0  0  0  0
  9 10  2  0  0  0  0
  9 11  1  0  0  0  0
 11 12  2  0  0  0  0
  5 13  4  0  0  0  0
 11 13  1  0  0  0  0
 13 14  1  0  0  0  0
  1 15  1  0  0  0  0
  1 16  1  0  0  0  0
  1 17  1  0  0  0  0
  3 18  1  0  0  0  0
 10 19  1  0  0  0  0
 10 20  1  0  0  0  0
 11 21  1  0  0  0  0
 14 22  1  0  0  0  0
 14 23  1  0  0  0  0
 14 24  1  0  0  0  0
  4 25  1  0  0  0  0
M  CHG  1   1   1
M  END
