 xtb: 6.6.1 (8d0f1dd)
          06052420003D

 25 25  0     0  0            999 V2000
    3.9684    3.3447    0.1901 C   0  0  0  0  0  0  0  0  0  0  0  0
    2.1726   -1.1090   -0.0610 N   0  0  0  0  0  0  0  0  0  0  0  0
    2.0589   -2.4013   -0.1208 C   0  0  0  0  0  0  0  0  0  0  0  0
    0.7489   -2.8042   -0.1323 N   0  0  0  0  0  0  0  0  0  0  0  0
    0.0031   -1.6729   -0.0750 C   0  0  0  0  0  0  0  0  0  0  0  0
    0.9150   -0.6086   -0.0306 C   0  0  0  0  0  0  0  0  0  0  0  0
    0.4526    0.7588    0.0298 C   0  0  0  0  0  0  0  0  0  0  0  0
    1.1464    1.7505    0.0673 O   0  0  0  0  0  0  0  0  0  0  0  0
   -0.9416    0.8358    0.0388 N   0  0  0  0  0  0  0  0  0  0  0  0
   -1.5464    2.1575    0.0886 C   0  0  0  0  0  0  0  0  0  0  0  0
   -1.8495   -0.2088    0.0027 C   0  0  0  0  0  0  0  0  0  0  0  0
   -3.0368   -0.0192    0.0223 O   0  0  0  0  0  0  0  0  0  0  0  0
   -1.3309   -1.5129   -0.0589 N   0  0  0  0  0  0  0  0  0  0  0  0
   -2.2483   -2.6313   -0.1081 C   0  0  0  0  0  0  0  0  0  0  0  0
    4.3001    3.7862    1.1119 H   0  0  0  0  0  0  0  0  0  0  0  0
    4.5666    3.4599   -0.6939 H   0  0  0  0  0  0  0  0  0  0  0  0
    3.0453    2.7938    0.1524 H   0  0  0  0  0  0  0  0  0  0  0  0
    2.8854   -3.0824   -0.1584 H   0  0  0  0  0  0  0  0  0  0  0  0
   -0.7499    2.8979    0.0764 H   0  0  0  0  0  0  0  0  0  0  0  0
   -2.2063    2.2939   -0.7690 H   0  0  0  0  0  0  0  0  0  0  0  0
   -2.1442    2.2601    0.9951 H   0  0  0  0  0  0  0  0  0  0  0  0
   -2.1021   -3.2826    0.7546 H   0  0  0  0  0  0  0  0  0  0  0  0
   -2.1056   -3.1991   -1.0287 H   0  0  0  0  0  0  0  0  0  0  0  0
   -3.2614   -2.2311   -0.0868 H   0  0  0  0  0  0  0  0  0  0  0  0
    0.4203   -3.7577   -0.1754 H   0  0  0  0  0  0  0  0  0  0  0  0
  2  3  2  0  0  0  0
  3  4  4  0  0  0  0
  4  5  4  0  0  0  0
  2  6  4  0  0  0  0
  5  6  4  0  0  0  0
  6  7  1  0  0  0  0
  7  8  2  0  0  0  0
  7  9  1  0  0  0  0
  9 10  1  0  0  0  0
  9 11  1  0  0  0  0
 11 12  2  0  0  0  0
  5 13  4  0  0  0  0
 11 13  1  0  0  0  0
 13 14  1  0  0  0  0
  1 15  1  0  0  0  0
  1 16  1  0  0  0  0
  1 17  1  0  0  0  0
  3 18  1  0  0  0  0
 10 19  1  0  0  0  0
 10 20  1  0  0  0  0
 10 21  1  0  0  0  0
 14 22  1  0  0  0  0
 14 23  1  0  0  0  0
 14 24  1  0  0  0  0
  4 25  1  0  0  0  0
M  CHG  1   1   1
M  END
