 xtb: 6.6.1 (8d0f1dd)
          04062411143D

 72 72  0     0  0            999 V2000
   -1.8992    2.8600    2.0851 N   0  0  0  0  0  0  0  0  0  0  0  0
   -1.9116    2.0313    1.1502 C   0  0  0  0  0  0  0  0  0  0  0  0
   -3.0508    1.8393    0.1883 C   0  0  0  0  0  0  0  0  0  0  0  0
   -3.5857    0.4211    0.3150 C   0  0  0  0  0  0  0  0  0  0  0  0
   -4.4813   -0.0702   -0.6371 C   0  0  0  0  0  0  0  0  0  0  0  0
   -5.0097   -1.3464   -0.5438 C   0  0  0  0  0  0  0  0  0  0  0  0
   -5.8821   -1.8942   -1.4170 O   0  0  0  0  0  0  0  0  0  0  0  0
   -6.3930   -1.1048   -2.4649 C   0  0  0  0  0  0  0  0  0  0  0  0
   -4.6311   -2.1827    0.5401 C   0  0  0  0  0  0  0  0  0  0  0  0
   -5.1900   -3.4107    0.5494 O   0  0  0  0  0  0  0  0  0  0  0  0
   -4.9367   -4.2687    1.6371 C   0  0  0  0  0  0  0  0  0  0  0  0
   -3.7459   -1.6878    1.4839 C   0  0  0  0  0  0  0  0  0  0  0  0
   -3.2332   -0.4013    1.3729 C   0  0  0  0  0  0  0  0  0  0  0  0
   -2.4491    2.0576   -1.2256 C   0  0  0  0  0  0  0  0  0  0  0  0
   -1.5552    0.9071   -1.7218 C   0  0  0  0  0  0  0  0  0  0  0  0
   -0.2503    0.8461   -1.0285 C   0  0  0  0  0  0  0  0  0  0  0  0
    0.3557   -0.2687   -0.6238 N   0  0  0  0  0  0  0  0  0  0  0  0
    1.6872   -0.1956   -0.0699 C   0  0  0  0  0  0  0  0  0  0  0  0
    2.7760   -0.3565   -1.1493 C   0  0  0  0  0  0  0  0  0  0  0  0
    4.1243   -0.0696   -0.5796 C   0  0  0  0  0  0  0  0  0  0  0  0
    6.7342    2.9137   -0.7454 C   0  0  0  0  0  0  0  0  0  0  0  0
    6.7738    1.7481   -0.4269 C   0  0  0  0  0  0  0  0  0  0  0  0
    7.1756    0.4802    0.0353 C   0  0  0  0  0  0  0  0  0  0  0  0
    8.3957    0.3675    0.6208 O   0  0  0  0  0  0  0  0  0  0  0  0
    9.2186    1.5029    0.7282 C   0  0  0  0  0  0  0  0  0  0  0  0
    6.4891   -0.7183   -0.1065 C   0  0  0  0  0  0  0  0  0  0  0  0
    7.2344   -1.7896    0.2787 O   0  0  0  0  0  0  0  0  0  0  0  0
    6.6420   -3.0562    0.4256 C   0  0  0  0  0  0  0  0  0  0  0  0
    5.1582   -0.9200   -0.6213 C   0  0  0  0  0  0  0  0  0  0  0  0
   -0.2631   -1.5648   -0.7625 C   0  0  0  0  0  0  0  0  0  0  0  0
   -4.2314    2.8271    0.4211 C   0  0  0  0  0  0  0  0  0  0  0  0
   -4.8716    2.6147    1.7909 C   0  0  0  0  0  0  0  0  0  0  0  0
   -3.8324    4.2915    0.2601 C   0  0  0  0  0  0  0  0  0  0  0  0
   -4.7798    0.5623   -1.4566 H   0  0  0  0  0  0  0  0  0  0  0  0
   -6.9067   -0.2167   -2.0845 H   0  0  0  0  0  0  0  0  0  0  0  0
   -7.1083   -1.7385   -2.9854 H   0  0  0  0  0  0  0  0  0  0  0  0
   -5.6055   -0.8024   -3.1632 H   0  0  0  0  0  0  0  0  0  0  0  0
   -5.2569   -3.8218    2.5830 H   0  0  0  0  0  0  0  0  0  0  0  0
   -5.5233   -5.1648    1.4448 H   0  0  0  0  0  0  0  0  0  0  0  0
   -3.8770   -4.5366    1.6997 H   0  0  0  0  0  0  0  0  0  0  0  0
   -3.4556   -2.2925    2.3277 H   0  0  0  0  0  0  0  0  0  0  0  0
   -2.5721   -0.0410    2.1459 H   0  0  0  0  0  0  0  0  0  0  0  0
   -3.2653    2.1839   -1.9362 H   0  0  0  0  0  0  0  0  0  0  0  0
   -1.8705    2.9821   -1.2217 H   0  0  0  0  0  0  0  0  0  0  0  0
   -2.0949   -0.0351   -1.6404 H   0  0  0  0  0  0  0  0  0  0  0  0
   -1.3630    1.0910   -2.7871 H   0  0  0  0  0  0  0  0  0  0  0  0
   -1.0542    1.3792    0.8958 H   0  0  0  0  0  0  0  0  0  0  0  0
    0.3207    1.7593   -0.9530 H   0  0  0  0  0  0  0  0  0  0  0  0
    1.8018   -0.9737    0.6880 H   0  0  0  0  0  0  0  0  0  0  0  0
    1.8182    0.7748    0.4158 H   0  0  0  0  0  0  0  0  0  0  0  0
    2.5659    0.3599   -1.9496 H   0  0  0  0  0  0  0  0  0  0  0  0
    2.7415   -1.3610   -1.5725 H   0  0  0  0  0  0  0  0  0  0  0  0
    6.5669    3.8978   -1.0712 H   0  0  0  0  0  0  0  0  0  0  0  0
    4.2502    0.9072   -0.1326 H   0  0  0  0  0  0  0  0  0  0  0  0
    8.7458    2.2848    1.3304 H   0  0  0  0  0  0  0  0  0  0  0  0
    9.4651    1.9153   -0.2544 H   0  0  0  0  0  0  0  0  0  0  0  0
   10.1257    1.1579    1.2203 H   0  0  0  0  0  0  0  0  0  0  0  0
    7.3708   -3.6534    0.9717 H   0  0  0  0  0  0  0  0  0  0  0  0
    5.7100   -3.0055    0.9968 H   0  0  0  0  0  0  0  0  0  0  0  0
    6.4541   -3.5313   -0.5431 H   0  0  0  0  0  0  0  0  0  0  0  0
    4.9893   -1.8999   -1.0507 H   0  0  0  0  0  0  0  0  0  0  0  0
   -0.4683   -1.7920   -1.8102 H   0  0  0  0  0  0  0  0  0  0  0  0
   -1.2042   -1.6016   -0.2060 H   0  0  0  0  0  0  0  0  0  0  0  0
    0.4034   -2.3271   -0.3681 H   0  0  0  0  0  0  0  0  0  0  0  0
   -4.9840    2.5944   -0.3411 H   0  0  0  0  0  0  0  0  0  0  0  0
   -4.1646    2.8657    2.5751 H   0  0  0  0  0  0  0  0  0  0  0  0
   -5.1915    1.5834    1.9193 H   0  0  0  0  0  0  0  0  0  0  0  0
   -5.7419    3.2579    1.8906 H   0  0  0  0  0  0  0  0  0  0  0  0
   -3.0511    4.5485    0.9684 H   0  0  0  0  0  0  0  0  0  0  0  0
   -3.4913    4.5115   -0.7481 H   0  0  0  0  0  0  0  0  0  0  0  0
   -4.6957    4.9198    0.4632 H   0  0  0  0  0  0  0  0  0  0  0  0
   -1.0586    2.9205    2.6516 H   0  0  0  0  0  0  0  0  0  0  0  0
  1  2  2  0  0  0  0
  2  3  1  0  0  0  0
  3  4  1  0  0  0  0
  4  5  4  0  0  0  0
  5  6  4  0  0  0  0
  6  7  1  0  0  0  0
  7  8  1  0  0  0  0
  6  9  4  0  0  0  0
  9 10  1  0  0  0  0
 10 11  1  0  0  0  0
  9 12  4  0  0  0  0
  4 13  4  0  0  0  0
 12 13  4  0  0  0  0
  3 14  1  0  0  0  0
 14 15  1  0  0  0  0
 15 16  1  0  0  0  0
 16 17  4  0  0  0  0
 17 18  1  0  0  0  0
 18 19  1  0  0  0  0
 19 20  1  0  0  0  0
 21 22  3  0  0  0  0
 22 23  1  0  0  0  0
 23 24  1  0  0  0  0
 24 25  1  0  0  0  0
 23 26  4  0  0  0  0
 26 27  1  0  0  0  0
 27 28  1  0  0  0  0
 20 29  2  0  0  0  0
 26 29  1  0  0  0  0
 17 30  1  0  0  0  0
  3 31  1  0  0  0  0
 31 32  1  0  0  0  0
 31 33  1  0  0  0  0
  5 34  1  0  0  0  0
  8 35  1  0  0  0  0
  8 36  1  0  0  0  0
  8 37  1  0  0  0  0
 11 38  1  0  0  0  0
 11 39  1  0  0  0  0
 11 40  1  0  0  0  0
 12 41  1  0  0  0  0
 13 42  1  0  0  0  0
 14 43  1  0  0  0  0
 14 44  1  0  0  0  0
 15 45  1  0  0  0  0
 15 46  1  0  0  0  0
  2 47  1  0  0  0  0
 16 48  1  0  0  0  0
 18 49  1  0  0  0  0
 18 50  1  0  0  0  0
 19 51  1  0  0  0  0
 19 52  1  0  0  0  0
 21 53  1  0  0  0  0
 20 54  1  0  0  0  0
 25 55  1  0  0  0  0
 25 56  1  0  0  0  0
 25 57  1  0  0  0  0
 28 58  1  0  0  0  0
 28 59  1  0  0  0  0
 28 60  1  0  0  0  0
 29 61  1  0  0  0  0
 30 62  1  0  0  0  0
 30 63  1  0  0  0  0
 30 64  1  0  0  0  0
 31 65  1  0  0  0  0
 32 66  1  0  0  0  0
 32 67  1  0  0  0  0
 32 68  1  0  0  0  0
 33 69  1  0  0  0  0
 33 70  1  0  0  0  0
 33 71  1  0  0  0  0
  1 72  1  0  0  0  0
M  CHG  1   1   1
M  END
