 xtb: 6.6.1 (8d0f1dd)
          06052419583D

 25 26  0     0  0            999 V2000
    2.1815    1.4949    0.8003 C   0  0  0  0  0  0  0  0  0  0  0  0
    1.7295    0.1828    0.4281 N   0  0  0  0  0  0  0  0  0  0  0  0
    2.4452   -0.9076    0.3492 C   0  0  0  0  0  0  0  0  0  0  0  0
    1.7284   -1.9567   -0.0138 N   0  0  0  0  0  0  0  0  0  0  0  0
    0.3863   -1.6003   -0.2019 C   0  0  0  0  0  0  0  0  0  0  0  0
    0.3589   -0.0763    0.0398 C   0  0  0  0  0  0  0  0  0  0  0  0
   -0.0276    0.7169   -1.2581 C   0  0  0  0  0  0  0  0  0  0  0  0
    0.5692    0.6339   -2.2906 O   0  0  0  0  0  0  0  0  0  0  0  0
   -1.0968    1.4598   -0.9581 N   0  0  0  0  0  0  0  0  0  0  0  0
   -1.5599    1.4169    0.4021 C   0  0  0  0  0  0  0  0  0  0  0  0
   -0.6822    0.3839    1.0784 C   0  0  0  0  0  0  0  0  0  0  0  0
   -0.7411   -0.0133    2.2002 O   0  0  0  0  0  0  0  0  0  0  0  0
   -0.4773   -2.4463   -0.4907 N   0  0  0  0  0  0  0  0  0  0  0  0
   -1.8555   -2.1961   -0.6846 C   0  0  0  0  0  0  0  0  0  0  0  0
    1.6641    1.8271    1.7030 H   0  0  0  0  0  0  0  0  0  0  0  0
    3.2512    1.4737    0.9948 H   0  0  0  0  0  0  0  0  0  0  0  0
    1.9834    2.2035   -0.0064 H   0  0  0  0  0  0  0  0  0  0  0  0
    3.5012   -0.9449    0.5617 H   0  0  0  0  0  0  0  0  0  0  0  0
   -1.5367    2.0419   -1.6543 H   0  0  0  0  0  0  0  0  0  0  0  0
   -2.6191    1.1509    0.4801 H   0  0  0  0  0  0  0  0  0  0  0  0
   -1.4337    2.3810    0.9100 H   0  0  0  0  0  0  0  0  0  0  0  0
   -2.4053   -2.7925    0.0439 H   0  0  0  0  0  0  0  0  0  0  0  0
   -2.1243   -2.5649   -1.6751 H   0  0  0  0  0  0  0  0  0  0  0  0
   -2.1312   -1.1446   -0.5882 H   0  0  0  0  0  0  0  0  0  0  0  0
    2.0521   -2.9058   -0.1387 H   0  0  0  0  0  0  0  0  0  0  0  0
  1  2  1  0  0  0  0
  2  3  4  0  0  0  0
  3  4  4  0  0  0  0
  4  5  1  0  0  0  0
  2  6  1  0  0  0  0
  5  6  1  0  0  0  0
  6  7  1  0  0  0  0
  7  8  2  0  0  0  0
  7  9  4  0  0  0  0
  9 10  1  0  0  0  0
  6 11  1  0  0  0  0
 10 11  1  0  0  0  0
 11 12  2  0  0  0  0
  5 13  2  0  0  0  0
 13 14  1  0  0  0  0
  1 15  1  0  0  0  0
  1 16  1  0  0  0  0
  1 17  1  0  0  0  0
  3 18  1  0  0  0  0
  9 19  1  0  0  0  0
 10 20  1  0  0  0  0
 10 21  1  0  0  0  0
 14 22  1  0  0  0  0
 14 23  1  0  0  0  0
 14 24  1  0  0  0  0
  4 25  1  0  0  0  0
M  CHG  1   1   1
M  END
