 xtb: 6.6.1 (8d0f1dd)
          06052420003D

 25 24  0     0  0            999 V2000
    3.2945    1.1701    0.0200 C   0  0  0  0  0  0  0  0  0  0  0  0
    2.3436    0.0879    0.0134 N   0  0  0  0  0  0  0  0  0  0  0  0
    2.6697   -1.1985    0.0168 C   0  0  0  0  0  0  0  0  0  0  0  0
    1.5650   -1.9504    0.0337 N   0  0  0  0  0  0  0  0  0  0  0  0
    0.4390   -1.1101    0.0405 C   0  0  0  0  0  0  0  0  0  0  0  0
    0.9827    0.2054    0.0293 C   0  0  0  0  0  0  0  0  0  0  0  0
    0.2353    1.4707    0.0032 C   0  0  0  0  0  0  0  0  0  0  0  0
    0.7997    2.5657   -0.0865 O   0  0  0  0  0  0  0  0  0  0  0  0
   -1.0761    1.2991    0.0822 N   0  0  0  0  0  0  0  0  0  0  0  0
   -2.0221    2.3215    0.0889 C   0  0  0  0  0  0  0  0  0  0  0  0
   -4.0225   -1.0881   -0.5636 C   0  0  0  0  0  0  0  0  0  0  0  0
   -4.3725   -0.0601   -0.2695 O   0  0  0  0  0  0  0  0  0  0  0  0
   -0.7960   -1.4447    0.0437 N   0  0  0  0  0  0  0  0  0  0  0  0
   -1.3276   -2.7486    0.0525 C   0  0  0  0  0  0  0  0  0  0  0  0
    3.7224    1.2873    1.0171 H   0  0  0  0  0  0  0  0  0  0  0  0
    4.0959    0.9677   -0.6887 H   0  0  0  0  0  0  0  0  0  0  0  0
    2.7805    2.0952   -0.2466 H   0  0  0  0  0  0  0  0  0  0  0  0
    3.6754   -1.5759    0.0078 H   0  0  0  0  0  0  0  0  0  0  0  0
   -1.5684    3.3143    0.2152 H   0  0  0  0  0  0  0  0  0  0  0  0
   -2.5862    2.3085   -0.8520 H   0  0  0  0  0  0  0  0  0  0  0  0
   -2.7355    2.1393    0.8992 H   0  0  0  0  0  0  0  0  0  0  0  0
   -0.9604   -3.3455    0.8953 H   0  0  0  0  0  0  0  0  0  0  0  0
   -1.1040   -3.2793   -0.8808 H   0  0  0  0  0  0  0  0  0  0  0  0
   -2.4139   -2.6537    0.1273 H   0  0  0  0  0  0  0  0  0  0  0  0
    1.5419   -2.9595    0.0328 H   0  0  0  0  0  0  0  0  0  0  0  0
  1  2  1  0  0  0  0
  2  3  4  0  0  0  0
  3  4  4  0  0  0  0
  4  5  1  0  0  0  0
  2  6  4  0  0  0  0
  5  6  4  0  0  0  0
  6  7  1  0  0  0  0
  7  8  2  0  0  0  0
  7  9  4  0  0  0  0
  9 10  1  0  0  0  0
 11 12  3  0  0  0  0
  5 13  2  0  0  0  0
 13 14  1  0  0  0  0
  1 15  1  0  0  0  0
  1 16  1  0  0  0  0
  1 17  1  0  0  0  0
  3 18  1  0  0  0  0
 10 19  1  0  0  0  0
 10 20  1  0  0  0  0
 10 21  1  0  0  0  0
 14 22  1  0  0  0  0
 14 23  1  0  0  0  0
 14 24  1  0  0  0  0
  4 25  1  0  0  0  0
M  CHG  1   1   1
M  END
