          23
 
C              3.38612849        1.18197453       -0.15331659
N              2.44987261        0.09000962       -0.07349421
C              2.78663122       -1.19404601       -0.08820360
N              1.69354870       -1.95552075        0.02857615
C              0.56551732       -1.12401310        0.12458664
C              1.09575533        0.19513397        0.05992753
C              0.32818908        1.44732186        0.08623248
O              0.85117848        2.54985112       -0.10165312
N             -0.95758964        1.25068459        0.33762080
C             -1.95596440        2.21206741        0.37402650
N             -0.66610920       -1.45744700        0.23154170
C             -1.18428118       -2.76817711        0.30052611
H              3.96312643        1.24933469        0.77002214
H              4.06920800        1.02992987       -0.98782891
H              2.83178362        2.11173162       -0.29270316
H              3.79200559       -1.56022623       -0.18175717
H             -1.69803847        3.12106477       -0.18839598
H             -2.87519999        1.76272607       -0.05170507
H             -2.18815995        2.48474539        1.41184709
H             -0.76300290       -3.33637138        1.13806393
H             -0.99989294       -3.32545982       -0.62570283
H             -2.26214006       -2.69123614        0.44349576
H              1.68547279       -2.96478496        0.03853616
