          68
 
N             -1.77891731        2.71907451        2.51402201
C             -1.76715995        2.10566744        1.42673614
C             -2.93372449        2.02785069        0.47984720
C             -3.45576398        0.59999968        0.43444589
C             -4.41687021        0.24482445       -0.51423926
C             -4.93816578       -1.03704378       -0.57289420
O             -5.87751006       -1.45615826       -1.44403550
C             -6.48259625       -0.52297334       -2.30827431
C             -4.47374326       -2.02405261        0.33944946
O             -5.02319444       -3.24580088        0.20016392
C             -4.65690016       -4.27049778        1.09469056
C             -3.52206084       -1.66370202        1.28043740
C             -3.02426622       -0.36752179        1.32898974
C             -2.38489899        2.43984941       -0.91207447
C             -1.52835653        1.36652160       -1.60858309
C             -0.18711034        1.20028186       -1.00826546
N              0.40320430        0.04363726       -0.74574090
C              1.78664555       -0.00097175       -0.33424449
C              2.71576946       -0.44899652       -1.48220212
C              4.14466100       -0.38273155       -1.02933993
C              4.85584319        0.81929031       -1.12243720
C              6.14505099        0.91783519       -0.67918823
C              6.84007916       -0.19416085       -0.09421158
O              8.00456635       -0.11959718        0.31350058
C              6.06827077       -1.44548540       -0.01292817
O              6.74676485       -2.46119346        0.52800908
C              6.14467460       -3.72753930        0.64718303
C              4.76473236       -1.49874726       -0.47190924
C             -0.27000007       -1.22031105       -0.93008753
C             -4.11142685        2.96633548        0.87985808
C             -4.74873920        2.53533772        2.19846514
C             -3.70790964        4.43605567        0.95761765
H             -4.77330057        0.98781636       -1.20803439
H             -6.96224926        0.28661294       -1.75002584
H             -7.23982234       -1.08069202       -2.85558105
H             -5.76176649       -0.10352359       -3.01753243
H             -4.90273493       -4.00823950        2.12791180
H             -5.23819018       -5.14034607        0.79542435
H             -3.59010958       -4.50502151        1.02078052
H             -3.16861343       -2.38430812        1.99983964
H             -2.30990593       -0.11807111        2.09815783
H             -3.22594834        2.67422534       -1.56338098
H             -1.79320684        3.34911604       -0.80026754
H             -2.07505330        0.42590068       -1.64411980
H             -1.38176094        1.70611713       -2.64223911
H             -0.87839162        1.58371523        1.02421632
H              0.41280191        2.08971309       -0.88108759
H              1.88835544       -0.69405070        0.50556190
H              2.09601836        0.99075920        0.00130257
H              2.56464672        0.21754377       -2.33356893
H              2.46063774       -1.46463582       -1.78648722
H              4.37591813        1.68095394       -1.56523073
H              6.69740265        1.84092118       -0.75669823
H              6.89627304       -4.37164764        1.09969852
H              5.26246172       -3.69082285        1.29434304
H              5.86433855       -4.12925101       -0.33147398
H              4.21149845       -2.42496396       -0.41253480
H             -0.45221122       -1.41988735       -1.98825615
H             -1.22623144       -1.22416171       -0.40148793
H              0.34960099       -2.01788875       -0.52804573
H             -4.86805226        2.86546765        0.09332304
H             -4.03525128        2.64057425        3.00935220
H             -5.08413813        1.50191900        2.15462154
H             -5.60858722        3.16540464        2.40979752
H             -2.94385869        4.57793650        1.71565647
H             -3.34181301        4.80836802        0.00455487
H             -4.57505511        5.02933452        1.23532844
H             -0.92710048        2.73048991        3.06591268
