          21
 
C              3.38927134        1.58938803       -0.00118505
N              2.57641684        0.40158139        0.00046761
C              2.99970075       -0.85593872       -0.00071434
N              1.95444759       -1.70055416        0.00109546
C              0.80076745       -0.95817459        0.00319817
C              1.20977062        0.38343137        0.00301527
C              0.22049927        1.43758951        0.00134897
O              0.46252515        2.62946533        0.00208800
N             -1.06384991        0.92483287       -0.00222983
C             -2.16813831        1.86179585       -0.00763099
C             -1.42552530       -0.45396353        0.00280851
O             -2.59988446       -0.74627991        0.00489076
N             -0.43655781       -1.38104754        0.00358168
H              4.01647086        1.62155830        0.89019547
H              4.03039042        1.60983903       -0.88268896
H              2.73266164        2.45979707       -0.01099855
H              4.03054289       -1.15620662       -0.00248737
H             -1.76053449        2.87113092        0.00105606
H             -2.78112495        1.70757316       -0.89735896
H             -2.79743914        1.69813533        0.86899810
H              1.99697355       -2.71009815        0.00125474
