           5
 
C              3.59245154        1.34443400       -0.08481341
N              3.41500444        0.33884355       -0.80376385
H              3.55331925        1.22857825        0.99137919
H              3.47267935        0.42701985       -1.81358539
H              3.81185914        2.35260676       -0.44304537
