          24
 
C              3.23371702        1.12961287        0.04334006
N              2.28032814        0.05314973        0.01716938
C              2.54556921       -1.25025356        0.02354137
N              1.38887373       -1.95425550        0.01763512
C              0.35424282       -1.06732254        0.00958777
C              0.91039701        0.20625370        0.00958310
C              0.11414811        1.39447343       -0.01659546
O              0.49600838        2.54295209       -0.06445666
N             -1.29004876        1.08323732        0.02627017
C             -2.14531532        2.11570160        0.05147082
C             -1.85993812       -0.22134737        0.02093010
O             -3.04879228       -0.38310257        0.03333044
N             -0.97421793       -1.29771391       -0.00369394
C             -1.50980748       -2.64654296       -0.02846385
H              3.68595227        1.21101028        1.03316268
H              4.02029195        0.95651700       -0.68967602
H              2.71590833        2.06131353       -0.18204826
H              3.52537384       -1.68406007        0.03133678
H             -1.72907130        3.10732869        0.03630744
H             -3.19973703        1.91455953        0.08517032
H             -1.22066150       -3.18887602        0.87204888
H             -1.16095013       -3.17465741       -0.91593660
H             -2.59555484       -2.57217650       -0.06286872
H              1.32493871       -2.96200447        0.01646693
