           5
 
C              3.38735688        2.39030575        0.17117512
N              3.78283939        1.49700855       -0.59376059
H              3.27532305        2.16577877        1.22487680
H              3.91573359        1.66361992       -1.58557943
H              3.15526175        3.42033289       -0.11457625
