 xtb: 6.6.1 (8d0f1dd)
          06052419593D

 25 26  0     0  0            999 V2000
    3.4305    1.4817    0.5427 C   0  0  0  0  0  0  0  0  0  0  0  0
    2.2063   -0.5098   -0.2393 N   0  0  0  0  0  0  0  0  0  0  0  0
    2.4971    0.8441   -0.4847 C   0  0  0  0  0  0  0  0  0  0  0  0
    0.4958   -3.0086    0.1851 N   0  0  0  0  0  0  0  0  0  0  0  0
    0.0941   -1.8104    0.0865 C   0  0  0  0  0  0  0  0  0  0  0  0
    0.9233   -0.6308   -0.1245 C   0  0  0  0  0  0  0  0  0  0  0  0
    0.2978    0.6536   -0.2895 C   0  0  0  0  0  0  0  0  0  0  0  0
    1.2108    1.5546   -0.5205 O   0  0  0  0  0  0  0  0  0  0  0  0
   -1.0043    0.8217   -0.2092 N   0  0  0  0  0  0  0  0  0  0  0  0
   -1.6464    2.1129   -0.3660 C   0  0  0  0  0  0  0  0  0  0  0  0
   -1.8603   -0.3086    0.0224 C   0  0  0  0  0  0  0  0  0  0  0  0
   -3.0407   -0.1299    0.0924 O   0  0  0  0  0  0  0  0  0  0  0  0
   -1.2584   -1.5394    0.1497 N   0  0  0  0  0  0  0  0  0  0  0  0
   -2.1289   -2.6912    0.3208 C   0  0  0  0  0  0  0  0  0  0  0  0
    4.3573    0.9157    0.5675 H   0  0  0  0  0  0  0  0  0  0  0  0
    3.6328    2.5096    0.2468 H   0  0  0  0  0  0  0  0  0  0  0  0
    2.9759    1.4671    1.5334 H   0  0  0  0  0  0  0  0  0  0  0  0
    2.9481    0.9449   -1.4864 H   0  0  0  0  0  0  0  0  0  0  0  0
   -0.8826    2.8831   -0.4351 H   0  0  0  0  0  0  0  0  0  0  0  0
   -2.2624    2.1116   -1.2663 H   0  0  0  0  0  0  0  0  0  0  0  0
   -2.3004    2.2969    0.4869 H   0  0  0  0  0  0  0  0  0  0  0  0
   -1.7862   -3.2759    1.1738 H   0  0  0  0  0  0  0  0  0  0  0  0
   -2.0759   -3.3231   -0.5668 H   0  0  0  0  0  0  0  0  0  0  0  0
   -3.1498   -2.3495    0.4735 H   0  0  0  0  0  0  0  0  0  0  0  0
    1.4867   -3.2021    0.1379 H   0  0  0  0  0  0  0  0  0  0  0  0
  1  3  1  0  0  0  0
  2  3  1  0  0  0  0
  4  5  2  0  0  0  0
  2  6  2  0  0  0  0
  5  6  1  0  0  0  0
  6  7  1  0  0  0  0
  3  8  1  0  0  0  0
  7  8  4  0  0  0  0
  7  9  4  0  0  0  0
  9 10  1  0  0  0  0
  9 11  1  0  0  0  0
 11 12  2  0  0  0  0
  5 13  1  0  0  0  0
 11 13  1  0  0  0  0
 13 14  1  0  0  0  0
  1 15  1  0  0  0  0
  1 16  1  0  0  0  0
  1 17  1  0  0  0  0
  3 18  1  0  0  0  0
 10 19  1  0  0  0  0
 10 20  1  0  0  0  0
 10 21  1  0  0  0  0
 14 22  1  0  0  0  0
 14 23  1  0  0  0  0
 14 24  1  0  0  0  0
  4 25  1  0  0  0  0
M  CHG  1   1   1
M  END
