           7
 
C             -2.65600184       -1.84255421        0.33754483
O             -2.31925944       -0.76147129        0.06275516
N             -2.84103368       -2.94507201        0.71354256
C             -3.51369682       -4.17202129        0.80306059
H             -3.32990709       -4.58968223        1.79390731
H             -3.12268227       -4.85987332        0.05015019
H             -4.58826033       -4.04533444        0.65684389
