 xtb: 6.6.1 (8d0f1dd)
          04062411163D

 72 73  0     0  0            999 V2000
   -1.9013    2.9111    2.2045 N   0  0  0  0  0  0  0  0  0  0  0  0
   -1.8590    2.1651    1.2034 C   0  0  0  0  0  0  0  0  0  0  0  0
   -3.0035    1.9395    0.2547 C   0  0  0  0  0  0  0  0  0  0  0  0
   -3.4498    0.4879    0.3375 C   0  0  0  0  0  0  0  0  0  0  0  0
   -4.3546   -0.0142   -0.6004 C   0  0  0  0  0  0  0  0  0  0  0  0
   -4.8085   -1.3209   -0.5410 C   0  0  0  0  0  0  0  0  0  0  0  0
   -5.6883   -1.8801   -1.3997 O   0  0  0  0  0  0  0  0  0  0  0  0
   -6.2953   -1.0755   -2.3827 C   0  0  0  0  0  0  0  0  0  0  0  0
   -4.3384   -2.1788    0.4886 C   0  0  0  0  0  0  0  0  0  0  0  0
   -4.8287   -3.4361    0.4669 O   0  0  0  0  0  0  0  0  0  0  0  0
   -4.4836   -4.3211    1.5065 C   0  0  0  0  0  0  0  0  0  0  0  0
   -3.4415   -1.6748    1.4161 C   0  0  0  0  0  0  0  0  0  0  0  0
   -3.0065   -0.3571    1.3421 C   0  0  0  0  0  0  0  0  0  0  0  0
   -2.4465    2.2485   -1.1602 C   0  0  0  0  0  0  0  0  0  0  0  0
   -1.5165    1.1643   -1.7326 C   0  0  0  0  0  0  0  0  0  0  0  0
   -0.1908    1.1108   -1.0777 C   0  0  0  0  0  0  0  0  0  0  0  0
    0.4462   -0.0016   -0.7234 N   0  0  0  0  0  0  0  0  0  0  0  0
    1.8284    0.0537   -0.3100 C   0  0  0  0  0  0  0  0  0  0  0  0
    2.7851   -0.2229   -1.4846 C   0  0  0  0  0  0  0  0  0  0  0  0
    4.2090   -0.1748   -1.0009 C   0  0  0  0  0  0  0  0  0  0  0  0
    4.8214    1.0718   -0.7939 C   0  0  0  0  0  0  0  0  0  0  0  0
    6.1647    1.1566   -0.4184 C   0  0  0  0  0  0  0  0  0  0  0  0
    6.8928    0.0254   -0.1625 C   0  0  0  0  0  0  0  0  0  0  0  0
    8.2066   -0.0487    0.1323 O   0  0  0  0  0  0  0  0  0  0  0  0
    8.9662    1.1396    0.1848 C   0  0  0  0  0  0  0  0  0  0  0  0
    6.2467   -1.3237   -0.1502 C   0  0  0  0  0  0  0  0  0  0  0  0
    6.0253   -1.6932    1.2853 O   0  0  0  0  0  0  0  0  0  0  0  0
    6.4536   -2.8388    1.7244 C   0  0  0  0  0  0  0  0  0  0  0  0
    4.9013   -1.3292   -0.7658 C   0  0  0  0  0  0  0  0  0  0  0  0
   -0.1661   -1.3031   -0.8409 C   0  0  0  0  0  0  0  0  0  0  0  0
   -4.2370    2.8444    0.5452 C   0  0  0  0  0  0  0  0  0  0  0  0
   -4.8604    2.5208    1.9009 C   0  0  0  0  0  0  0  0  0  0  0  0
   -3.9211    4.3355    0.4657 C   0  0  0  0  0  0  0  0  0  0  0  0
   -4.7204    0.6332   -1.3799 H   0  0  0  0  0  0  0  0  0  0  0  0
   -6.8346   -0.2347   -1.9360 H   0  0  0  0  0  0  0  0  0  0  0  0
   -7.0025   -1.7248   -2.8951 H   0  0  0  0  0  0  0  0  0  0  0  0
   -5.5633   -0.6997   -3.1053 H   0  0  0  0  0  0  0  0  0  0  0  0
   -4.7833   -3.9290    2.4829 H   0  0  0  0  0  0  0  0  0  0  0  0
   -5.0318   -5.2388    1.3027 H   0  0  0  0  0  0  0  0  0  0  0  0
   -3.4099   -4.5351    1.5126 H   0  0  0  0  0  0  0  0  0  0  0  0
   -3.0813   -2.2971    2.2192 H   0  0  0  0  0  0  0  0  0  0  0  0
   -2.3333    0.0072    2.1025 H   0  0  0  0  0  0  0  0  0  0  0  0
   -3.2840    2.3699   -1.8463 H   0  0  0  0  0  0  0  0  0  0  0  0
   -1.9091    3.1970   -1.1258 H   0  0  0  0  0  0  0  0  0  0  0  0
   -2.0183    0.1990   -1.6990 H   0  0  0  0  0  0  0  0  0  0  0  0
   -1.3508    1.4181   -2.7882 H   0  0  0  0  0  0  0  0  0  0  0  0
   -0.9513    1.6204    0.8782 H   0  0  0  0  0  0  0  0  0  0  0  0
    0.3702    2.0309   -1.0092 H   0  0  0  0  0  0  0  0  0  0  0  0
    1.9990   -0.6860    0.4759 H   0  0  0  0  0  0  0  0  0  0  0  0
    2.0442    1.0424    0.1005 H   0  0  0  0  0  0  0  0  0  0  0  0
    2.6233    0.5308   -2.2576 H   0  0  0  0  0  0  0  0  0  0  0  0
    2.5691   -1.2043   -1.9077 H   0  0  0  0  0  0  0  0  0  0  0  0
    4.2713    1.9801   -0.9815 H   0  0  0  0  0  0  0  0  0  0  0  0
    6.6258    2.1298   -0.3617 H   0  0  0  0  0  0  0  0  0  0  0  0
    8.6039    1.8053    0.9729 H   0  0  0  0  0  0  0  0  0  0  0  0
    8.9464    1.6633   -0.7749 H   0  0  0  0  0  0  0  0  0  0  0  0
    9.9846    0.8294    0.4097 H   0  0  0  0  0  0  0  0  0  0  0  0
    6.9231   -2.0894   -0.5473 H   0  0  0  0  0  0  0  0  0  0  0  0
    6.0979   -3.1434    2.6931 H   0  0  0  0  0  0  0  0  0  0  0  0
    7.1421   -3.4491    1.1616 H   0  0  0  0  0  0  0  0  0  0  0  0
    4.4526   -2.2949   -0.9367 H   0  0  0  0  0  0  0  0  0  0  0  0
   -0.3539   -1.5606   -1.8856 H   0  0  0  0  0  0  0  0  0  0  0  0
   -1.1140   -1.3285   -0.2973 H   0  0  0  0  0  0  0  0  0  0  0  0
    0.4980   -2.0506   -0.4148 H   0  0  0  0  0  0  0  0  0  0  0  0
   -4.9784    2.6139   -0.2286 H   0  0  0  0  0  0  0  0  0  0  0  0
   -4.1629    2.7587    2.6974 H   0  0  0  0  0  0  0  0  0  0  0  0
   -5.1296    1.4695    1.9686 H   0  0  0  0  0  0  0  0  0  0  0  0
   -5.7604    3.1141    2.0389 H   0  0  0  0  0  0  0  0  0  0  0  0
   -3.1634    4.5992    1.1968 H   0  0  0  0  0  0  0  0  0  0  0  0
   -3.5821    4.6269   -0.5249 H   0  0  0  0  0  0  0  0  0  0  0  0
   -4.8212    4.9023    0.6891 H   0  0  0  0  0  0  0  0  0  0  0  0
   -1.0555    3.0084    2.7578 H   0  0  0  0  0  0  0  0  0  0  0  0
  1  2  2  0  0  0  0
  2  3  1  0  0  0  0
  3  4  1  0  0  0  0
  4  5  4  0  0  0  0
  5  6  4  0  0  0  0
  6  7  1  0  0  0  0
  7  8  1  0  0  0  0
  6  9  4  0  0  0  0
  9 10  1  0  0  0  0
 10 11  1  0  0  0  0
  9 12  4  0  0  0  0
  4 13  4  0  0  0  0
 12 13  4  0  0  0  0
  3 14  1  0  0  0  0
 14 15  1  0  0  0  0
 15 16  1  0  0  0  0
 16 17  4  0  0  0  0
 17 18  1  0  0  0  0
 18 19  1  0  0  0  0
 19 20  1  0  0  0  0
 20 21  4  0  0  0  0
 21 22  4  0  0  0  0
 22 23  4  0  0  0  0
 23 24  1  0  0  0  0
 24 25  1  0  0  0  0
 23 26  1  0  0  0  0
 26 27  1  0  0  0  0
 27 28  4  0  0  0  0
 20 29  2  0  0  0  0
 26 29  1  0  0  0  0
 17 30  1  0  0  0  0
  3 31  1  0  0  0  0
 31 32  1  0  0  0  0
 31 33  1  0  0  0  0
  5 34  1  0  0  0  0
  8 35  1  0  0  0  0
  8 36  1  0  0  0  0
  8 37  1  0  0  0  0
 11 38  1  0  0  0  0
 11 39  1  0  0  0  0
 11 40  1  0  0  0  0
 12 41  1  0  0  0  0
 13 42  1  0  0  0  0
 14 43  1  0  0  0  0
 14 44  1  0  0  0  0
 15 45  1  0  0  0  0
 15 46  1  0  0  0  0
  2 47  1  0  0  0  0
 16 48  1  0  0  0  0
 18 49  1  0  0  0  0
 18 50  1  0  0  0  0
 19 51  1  0  0  0  0
 19 52  1  0  0  0  0
 21 53  1  0  0  0  0
 22 54  1  0  0  0  0
 25 55  1  0  0  0  0
 25 56  1  0  0  0  0
 25 57  1  0  0  0  0
 26 58  1  0  0  0  0
 28 59  1  0  0  0  0
 28 60  1  0  0  0  0
 29 61  1  0  0  0  0
 30 62  1  0  0  0  0
 30 63  1  0  0  0  0
 30 64  1  0  0  0  0
 31 65  1  0  0  0  0
 32 66  1  0  0  0  0
 32 67  1  0  0  0  0
 32 68  1  0  0  0  0
 33 69  1  0  0  0  0
 33 70  1  0  0  0  0
 33 71  1  0  0  0  0
  1 72  1  0  0  0  0
M  CHG  1   1   1
M  END
