 xtb: 6.6.1 (8d0f1dd)
          04062411153D

 72 74  0     0  0            999 V2000
   -1.5888    0.8214    2.0725 N   0  0  0  0  0  0  0  0  0  0  0  0
   -1.4644    0.9393    0.8306 C   0  0  0  0  0  0  0  0  0  0  0  0
   -2.6298    0.9311   -0.1317 C   0  0  0  0  0  0  0  0  0  0  0  0
   -3.2743   -0.5149   -0.1861 C   0  0  0  0  0  0  0  0  0  0  0  0
   -4.4887   -0.5366   -1.0481 C   0  0  0  0  0  0  0  0  0  0  0  0
   -5.6408   -1.1715   -0.7060 C   0  0  0  0  0  0  0  0  0  0  0  0
   -6.7639   -1.2289   -1.4509 O   0  0  0  0  0  0  0  0  0  0  0  0
   -6.8085   -0.5369   -2.6775 C   0  0  0  0  0  0  0  0  0  0  0  0
   -5.7424   -1.8690    0.5514 C   0  0  0  0  0  0  0  0  0  0  0  0
   -6.8966   -2.4911    0.7685 O   0  0  0  0  0  0  0  0  0  0  0  0
   -7.1102   -3.1883    1.9776 C   0  0  0  0  0  0  0  0  0  0  0  0
   -4.6532   -1.8184    1.4396 C   0  0  0  0  0  0  0  0  0  0  0  0
   -3.5084   -1.1561    1.1294 C   0  0  0  0  0  0  0  0  0  0  0  0
   -1.9641    1.2102   -1.4974 C   0  0  0  0  0  0  0  0  0  0  0  0
   -0.5273    0.7111   -1.3716 C   0  0  0  0  0  0  0  0  0  0  0  0
   -0.1475    1.0936    0.0685 C   0  0  0  0  0  0  0  0  0  0  0  0
    0.9105    0.3706    0.7201 N   0  0  0  0  0  0  0  0  0  0  0  0
    2.2500    0.8857    0.6140 C   0  0  0  0  0  0  0  0  0  0  0  0
    2.8805    0.7918   -0.7989 C   0  0  0  0  0  0  0  0  0  0  0  0
    4.3760    0.8016   -0.7105 C   0  0  0  0  0  0  0  0  0  0  0  0
    5.1133    1.9509   -0.9546 C   0  0  0  0  0  0  0  0  0  0  0  0
    6.4958    1.9427   -0.8552 C   0  0  0  0  0  0  0  0  0  0  0  0
    7.1738    0.7841   -0.4993 C   0  0  0  0  0  0  0  0  0  0  0  0
    8.5066    0.6571   -0.3782 O   0  0  0  0  0  0  0  0  0  0  0  0
    9.3349    1.7646   -0.6484 C   0  0  0  0  0  0  0  0  0  0  0  0
    6.4253   -0.3982   -0.2328 C   0  0  0  0  0  0  0  0  0  0  0  0
    7.1568   -1.4756    0.1108 O   0  0  0  0  0  0  0  0  0  0  0  0
    6.5037   -2.6895    0.3960 C   0  0  0  0  0  0  0  0  0  0  0  0
    5.0450   -0.3653   -0.3446 C   0  0  0  0  0  0  0  0  0  0  0  0
    0.8000   -1.0671    0.7434 C   0  0  0  0  0  0  0  0  0  0  0  0
   -3.6787    2.0162    0.2307 C   0  0  0  0  0  0  0  0  0  0  0  0
   -4.5343    1.6402    1.4362 C   0  0  0  0  0  0  0  0  0  0  0  0
   -3.0209    3.3691    0.5147 C   0  0  0  0  0  0  0  0  0  0  0  0
   -4.4208   -0.0353   -1.9989 H   0  0  0  0  0  0  0  0  0  0  0  0
   -6.6389    0.5349   -2.5367 H   0  0  0  0  0  0  0  0  0  0  0  0
   -7.8126   -0.6956   -3.0655 H   0  0  0  0  0  0  0  0  0  0  0  0
   -6.0787   -0.9346   -3.3891 H   0  0  0  0  0  0  0  0  0  0  0  0
   -7.0651   -2.5146    2.8377 H   0  0  0  0  0  0  0  0  0  0  0  0
   -8.1110   -3.6088    1.8994 H   0  0  0  0  0  0  0  0  0  0  0  0
   -6.3851   -3.9968    2.1050 H   0  0  0  0  0  0  0  0  0  0  0  0
   -4.7360   -2.2987    2.4018 H   0  0  0  0  0  0  0  0  0  0  0  0
   -2.7141   -1.1061    1.8558 H   0  0  0  0  0  0  0  0  0  0  0  0
   -2.4822    0.7270   -2.3227 H   0  0  0  0  0  0  0  0  0  0  0  0
   -1.9586    2.2806   -1.6980 H   0  0  0  0  0  0  0  0  0  0  0  0
   -0.4838   -0.3724   -1.4925 H   0  0  0  0  0  0  0  0  0  0  0  0
    0.1303    1.1623   -2.1122 H   0  0  0  0  0  0  0  0  0  0  0  0
   -2.4945   -1.1090   -0.6883 H   0  0  0  0  0  0  0  0  0  0  0  0
    0.1143    2.1586    0.0996 H   0  0  0  0  0  0  0  0  0  0  0  0
    2.8710    0.3200    1.3134 H   0  0  0  0  0  0  0  0  0  0  0  0
    2.2489    1.9300    0.9368 H   0  0  0  0  0  0  0  0  0  0  0  0
    2.5333    1.6229   -1.4128 H   0  0  0  0  0  0  0  0  0  0  0  0
    2.5549   -0.1407   -1.2637 H   0  0  0  0  0  0  0  0  0  0  0  0
    4.6114    2.8642   -1.2349 H   0  0  0  0  0  0  0  0  0  0  0  0
    7.0418    2.8492   -1.0595 H   0  0  0  0  0  0  0  0  0  0  0  0
    9.1344    2.5919    0.0389 H   0  0  0  0  0  0  0  0  0  0  0  0
    9.2175    2.1092   -1.6801 H   0  0  0  0  0  0  0  0  0  0  0  0
   10.3532    1.4102   -0.4995 H   0  0  0  0  0  0  0  0  0  0  0  0
    7.2931   -3.3940    0.6504 H   0  0  0  0  0  0  0  0  0  0  0  0
    5.8219   -2.5877    1.2463 H   0  0  0  0  0  0  0  0  0  0  0  0
    5.9526   -3.0623   -0.4731 H   0  0  0  0  0  0  0  0  0  0  0  0
    4.4685   -1.2581   -0.1576 H   0  0  0  0  0  0  0  0  0  0  0  0
    1.1352   -1.5467   -0.1857 H   0  0  0  0  0  0  0  0  0  0  0  0
   -0.2355   -1.3499    0.9248 H   0  0  0  0  0  0  0  0  0  0  0  0
    1.4108   -1.4521    1.5604 H   0  0  0  0  0  0  0  0  0  0  0  0
   -4.3305    2.1262   -0.6435 H   0  0  0  0  0  0  0  0  0  0  0  0
   -3.8955    1.3411    2.2623 H   0  0  0  0  0  0  0  0  0  0  0  0
   -5.2218    0.8345    1.2012 H   0  0  0  0  0  0  0  0  0  0  0  0
   -5.1207    2.5015    1.7468 H   0  0  0  0  0  0  0  0  0  0  0  0
   -2.4627    3.3280    1.4463 H   0  0  0  0  0  0  0  0  0  0  0  0
   -2.3499    3.6855   -0.2797 H   0  0  0  0  0  0  0  0  0  0  0  0
   -3.7914    4.1291    0.6157 H   0  0  0  0  0  0  0  0  0  0  0  0
   -0.7264    0.8466    2.6105 H   0  0  0  0  0  0  0  0  0  0  0  0
  1  2  2  0  0  0  0
  2  3  1  0  0  0  0
  3  4  1  0  0  0  0
  4  5  1  0  0  0  0
  5  6  2  0  0  0  0
  6  7  1  0  0  0  0
  7  8  1  0  0  0  0
  6  9  1  0  0  0  0
  9 10  1  0  0  0  0
 10 11  1  0  0  0  0
  9 12  4  0  0  0  0
  4 13  1  0  0  0  0
 12 13  2  0  0  0  0
  3 14  1  0  0  0  0
 14 15  1  0  0  0  0
  2 16  1  0  0  0  0
 15 16  1  0  0  0  0
 16 17  1  0  0  0  0
 17 18  1  0  0  0  0
 18 19  1  0  0  0  0
 19 20  1  0  0  0  0
 20 21  4  0  0  0  0
 21 22  4  0  0  0  0
 22 23  4  0  0  0  0
 23 24  1  0  0  0  0
 24 25  1  0  0  0  0
 23 26  4  0  0  0  0
 26 27  1  0  0  0  0
 27 28  1  0  0  0  0
 20 29  4  0  0  0  0
 26 29  4  0  0  0  0
 17 30  1  0  0  0  0
  3 31  1  0  0  0  0
 31 32  1  0  0  0  0
 31 33  1  0  0  0  0
  5 34  1  0  0  0  0
  8 35  1  0  0  0  0
  8 36  1  0  0  0  0
  8 37  1  0  0  0  0
 11 38  1  0  0  0  0
 11 39  1  0  0  0  0
 11 40  1  0  0  0  0
 12 41  1  0  0  0  0
 13 42  1  0  0  0  0
 14 43  1  0  0  0  0
 14 44  1  0  0  0  0
 15 45  1  0  0  0  0
 15 46  1  0  0  0  0
  4 47  1  0  0  0  0
 16 48  1  0  0  0  0
 18 49  1  0  0  0  0
 18 50  1  0  0  0  0
 19 51  1  0  0  0  0
 19 52  1  0  0  0  0
 21 53  1  0  0  0  0
 22 54  1  0  0  0  0
 25 55  1  0  0  0  0
 25 56  1  0  0  0  0
 25 57  1  0  0  0  0
 28 58  1  0  0  0  0
 28 59  1  0  0  0  0
 28 60  1  0  0  0  0
 29 61  1  0  0  0  0
 30 62  1  0  0  0  0
 30 63  1  0  0  0  0
 30 64  1  0  0  0  0
 31 65  1  0  0  0  0
 32 66  1  0  0  0  0
 32 67  1  0  0  0  0
 32 68  1  0  0  0  0
 33 69  1  0  0  0  0
 33 70  1  0  0  0  0
 33 71  1  0  0  0  0
  1 72  1  0  0  0  0
M  CHG  1   1   1
M  END
