          19
 
C              4.64515694        1.01353338       -0.55969042
C              5.53750544        2.02002994       -0.33535142
C              6.84940306        1.62873484       -0.05774739
C              7.19980295        0.28540426       -0.00811376
O              8.43206005       -0.18968222        0.26560573
C              9.48020737        0.71695210        0.52055578
C              6.22033720       -0.72096709       -0.25457415
O              6.64935995       -1.99296254       -0.17802622
C              5.72443317       -3.03996339       -0.35124208
C              4.91812352       -0.31780638       -0.54652792
H              5.27373962        3.06430828       -0.36795101
H              7.58728519        2.39390636        0.12187427
H              9.27099408        1.33488850        1.39921401
H              9.67225075        1.36064186       -0.34318760
H             10.35636348        0.10069399        0.71304955
H              6.28640914       -3.95805210       -0.18924017
H              4.91171373       -2.97591721        0.37964236
H              5.30742813       -3.04179914       -1.36352186
H              4.12363662       -1.05515211       -0.77010515
