 xtb: 6.6.1 (8d0f1dd)
          06052419583D

 25 25  0     0  0            999 V2000
    2.9289    1.0887    0.2563 C   0  0  0  0  0  0  0  0  0  0  0  0
    2.1173   -0.0779    0.0372 N   0  0  0  0  0  0  0  0  0  0  0  0
    2.5666   -1.3138   -0.1117 C   0  0  0  0  0  0  0  0  0  0  0  0
    1.5335   -2.1434   -0.2996 N   0  0  0  0  0  0  0  0  0  0  0  0
    0.3586   -1.4148   -0.2432 C   0  0  0  0  0  0  0  0  0  0  0  0
    0.7419   -0.0948   -0.0028 C   0  0  0  0  0  0  0  0  0  0  0  0
   -0.0611    1.1525   -0.1298 C   0  0  0  0  0  0  0  0  0  0  0  0
    0.4041    2.1077   -0.7104 O   0  0  0  0  0  0  0  0  0  0  0  0
   -1.3412    1.1217    0.3638 N   0  0  0  0  0  0  0  0  0  0  0  0
   -2.2633    2.1517   -0.0860 C   0  0  0  0  0  0  0  0  0  0  0  0
   -1.7888    0.2547    1.3386 C   0  0  0  0  0  0  0  0  0  0  0  0
   -2.9200    0.2223    1.7192 O   0  0  0  0  0  0  0  0  0  0  0  0
   -0.8874   -1.9081   -0.2963 N   0  0  0  0  0  0  0  0  0  0  0  0
   -1.2985   -2.9152   -0.9488 C   0  0  0  0  0  0  0  0  0  0  0  0
    2.7928    1.4557    1.2748 H   0  0  0  0  0  0  0  0  0  0  0  0
    3.9759    0.8423    0.0991 H   0  0  0  0  0  0  0  0  0  0  0  0
    2.6237    1.8785   -0.4319 H   0  0  0  0  0  0  0  0  0  0  0  0
    3.5985   -1.6068   -0.0785 H   0  0  0  0  0  0  0  0  0  0  0  0
   -1.6955    3.0255   -0.4003 H   0  0  0  0  0  0  0  0  0  0  0  0
   -2.8526    1.7820   -0.9266 H   0  0  0  0  0  0  0  0  0  0  0  0
   -2.9385    2.4068    0.7278 H   0  0  0  0  0  0  0  0  0  0  0  0
   -1.0004   -0.3652    1.7810 H   0  0  0  0  0  0  0  0  0  0  0  0
   -0.7088   -3.4737   -1.6763 H   0  0  0  0  0  0  0  0  0  0  0  0
   -2.3241   -3.2141   -0.7996 H   0  0  0  0  0  0  0  0  0  0  0  0
    1.5988   -3.1440   -0.4250 H   0  0  0  0  0  0  0  0  0  0  0  0
  1  2  1  0  0  0  0
  2  3  4  0  0  0  0
  3  4  4  0  0  0  0
  4  5  1  0  0  0  0
  2  6  1  0  0  0  0
  5  6  4  0  0  0  0
  6  7  1  0  0  0  0
  7  8  2  0  0  0  0
  7  9  1  0  0  0  0
  9 10  1  0  0  0  0
  9 11  1  0  0  0  0
 11 12  2  0  0  0  0
  5 13  4  0  0  0  0
 13 14  2  0  0  0  0
  1 15  1  0  0  0  0
  1 16  1  0  0  0  0
  1 17  1  0  0  0  0
  3 18  1  0  0  0  0
 10 19  1  0  0  0  0
 10 20  1  0  0  0  0
 10 21  1  0  0  0  0
 11 22  1  0  0  0  0
 14 23  1  0  0  0  0
 14 24  1  0  0  0  0
  4 25  1  0  0  0  0
M  CHG  1   1   1
M  END
