 xtb: 6.6.1 (8d0f1dd)
          04062411153D

 72 73  0     0  0            999 V2000
   -1.8711    2.8273    2.2309 N   0  0  0  0  0  0  0  0  0  0  0  0
   -1.8180    2.1205    1.2019 C   0  0  0  0  0  0  0  0  0  0  0  0
   -2.9585    1.9123    0.2448 C   0  0  0  0  0  0  0  0  0  0  0  0
   -3.4221    0.4647    0.3158 C   0  0  0  0  0  0  0  0  0  0  0  0
   -4.3482   -0.0106   -0.6150 C   0  0  0  0  0  0  0  0  0  0  0  0
   -4.8204   -1.3110   -0.5680 C   0  0  0  0  0  0  0  0  0  0  0  0
   -5.7250   -1.8426   -1.4184 O   0  0  0  0  0  0  0  0  0  0  0  0
   -6.3423   -1.0108   -2.3720 C   0  0  0  0  0  0  0  0  0  0  0  0
   -4.3442   -2.1921    0.4388 C   0  0  0  0  0  0  0  0  0  0  0  0
   -4.8538   -3.4416    0.4060 O   0  0  0  0  0  0  0  0  0  0  0  0
   -4.5027   -4.3491    1.4237 C   0  0  0  0  0  0  0  0  0  0  0  0
   -3.4233   -1.7160    1.3573 C   0  0  0  0  0  0  0  0  0  0  0  0
   -2.9719   -0.4029    1.2976 C   0  0  0  0  0  0  0  0  0  0  0  0
   -2.3940    2.2162   -1.1679 C   0  0  0  0  0  0  0  0  0  0  0  0
   -1.4520    1.1331   -1.7233 C   0  0  0  0  0  0  0  0  0  0  0  0
   -0.1258    1.1169   -1.0676 C   0  0  0  0  0  0  0  0  0  0  0  0
    0.5368    0.0228   -0.6959 N   0  0  0  0  0  0  0  0  0  0  0  0
    1.9043    0.1190   -0.2475 C   0  0  0  0  0  0  0  0  0  0  0  0
    2.9015   -0.2506   -1.3598 C   0  0  0  0  0  0  0  0  0  0  0  0
    4.3063   -0.0336   -0.8668 C   0  0  0  0  0  0  0  0  0  0  0  0
    4.9328    1.1405   -1.0846 C   0  0  0  0  0  0  0  0  0  0  0  0
    6.3101    1.4219   -0.5962 C   0  0  0  0  0  0  0  0  0  0  0  0
    6.9667    0.2326    0.0319 C   0  0  0  0  0  0  0  0  0  0  0  0
    8.2554    0.2443    0.3312 O   0  0  0  0  0  0  0  0  0  0  0  0
    9.0575    1.2629    0.2092 C   0  0  0  0  0  0  0  0  0  0  0  0
    6.2441   -0.9570    0.2950 C   0  0  0  0  0  0  0  0  0  0  0  0
    6.9349   -1.9084    0.9609 O   0  0  0  0  0  0  0  0  0  0  0  0
    6.3244   -3.1565    1.1995 C   0  0  0  0  0  0  0  0  0  0  0  0
    4.9355   -1.0758   -0.1308 C   0  0  0  0  0  0  0  0  0  0  0  0
   -0.0434   -1.2945   -0.7924 C   0  0  0  0  0  0  0  0  0  0  0  0
   -4.1813    2.8319    0.5348 C   0  0  0  0  0  0  0  0  0  0  0  0
   -4.8267    2.4959    1.8773 C   0  0  0  0  0  0  0  0  0  0  0  0
   -3.8402    4.3187    0.4844 C   0  0  0  0  0  0  0  0  0  0  0  0
   -4.7171    0.6534   -1.3788 H   0  0  0  0  0  0  0  0  0  0  0  0
   -6.8567   -0.1697   -1.8972 H   0  0  0  0  0  0  0  0  0  0  0  0
   -7.0723   -1.6392   -2.8783 H   0  0  0  0  0  0  0  0  0  0  0  0
   -5.6220   -0.6337   -3.1055 H   0  0  0  0  0  0  0  0  0  0  0  0
   -4.7785   -3.9697    2.4122 H   0  0  0  0  0  0  0  0  0  0  0  0
   -5.0679   -5.2552    1.2147 H   0  0  0  0  0  0  0  0  0  0  0  0
   -3.4323   -4.5787    1.4061 H   0  0  0  0  0  0  0  0  0  0  0  0
   -3.0572   -2.3568    2.1431 H   0  0  0  0  0  0  0  0  0  0  0  0
   -2.2807   -0.0603    2.0521 H   0  0  0  0  0  0  0  0  0  0  0  0
   -3.2275    2.3266   -1.8607 H   0  0  0  0  0  0  0  0  0  0  0  0
   -1.8626    3.1682   -1.1375 H   0  0  0  0  0  0  0  0  0  0  0  0
   -1.9392    0.1612   -1.6664 H   0  0  0  0  0  0  0  0  0  0  0  0
   -1.2941    1.3654   -2.7849 H   0  0  0  0  0  0  0  0  0  0  0  0
   -0.9020    1.6011    0.8585 H   0  0  0  0  0  0  0  0  0  0  0  0
    0.4175    2.0486   -1.0157 H   0  0  0  0  0  0  0  0  0  0  0  0
    2.0509   -0.5432    0.6099 H   0  0  0  0  0  0  0  0  0  0  0  0
    2.1067    1.1428    0.0744 H   0  0  0  0  0  0  0  0  0  0  0  0
    2.7120    0.3841   -2.2265 H   0  0  0  0  0  0  0  0  0  0  0  0
    2.7597   -1.2904   -1.6557 H   0  0  0  0  0  0  0  0  0  0  0  0
    4.4552    1.9318   -1.6418 H   0  0  0  0  0  0  0  0  0  0  0  0
    6.2797    2.2618    0.1181 H   0  0  0  0  0  0  0  0  0  0  0  0
    8.7154    2.2453   -0.0920 H   0  0  0  0  0  0  0  0  0  0  0  0
    6.9215    1.7737   -1.4452 H   0  0  0  0  0  0  0  0  0  0  0  0
   10.1012    1.0615    0.4012 H   0  0  0  0  0  0  0  0  0  0  0  0
    7.0789   -3.7606    1.6995 H   0  0  0  0  0  0  0  0  0  0  0  0
    5.4516   -3.0587    1.8524 H   0  0  0  0  0  0  0  0  0  0  0  0
    6.0318   -3.6430    0.2644 H   0  0  0  0  0  0  0  0  0  0  0  0
    4.3808   -1.9801    0.0535 H   0  0  0  0  0  0  0  0  0  0  0  0
   -0.2034   -1.5811   -1.8341 H   0  0  0  0  0  0  0  0  0  0  0  0
   -1.0013   -1.3295   -0.2673 H   0  0  0  0  0  0  0  0  0  0  0  0
    0.6289   -2.0155   -0.3345 H   0  0  0  0  0  0  0  0  0  0  0  0
   -4.9165    2.6277   -0.2518 H   0  0  0  0  0  0  0  0  0  0  0  0
   -4.1340    2.7058    2.6857 H   0  0  0  0  0  0  0  0  0  0  0  0
   -5.1163    1.4489    1.9228 H   0  0  0  0  0  0  0  0  0  0  0  0
   -5.7169    3.1038    2.0157 H   0  0  0  0  0  0  0  0  0  0  0  0
   -3.0916    4.5594    1.2328 H   0  0  0  0  0  0  0  0  0  0  0  0
   -3.4789    4.6196   -0.4954 H   0  0  0  0  0  0  0  0  0  0  0  0
   -4.7349    4.8966    0.7007 H   0  0  0  0  0  0  0  0  0  0  0  0
   -1.0267    2.9138    2.7882 H   0  0  0  0  0  0  0  0  0  0  0  0
  1  2  2  0  0  0  0
  2  3  1  0  0  0  0
  3  4  1  0  0  0  0
  4  5  4  0  0  0  0
  5  6  4  0  0  0  0
  6  7  1  0  0  0  0
  7  8  1  0  0  0  0
  6  9  4  0  0  0  0
  9 10  1  0  0  0  0
 10 11  1  0  0  0  0
  9 12  4  0  0  0  0
  4 13  4  0  0  0  0
 12 13  4  0  0  0  0
  3 14  1  0  0  0  0
 14 15  1  0  0  0  0
 15 16  1  0  0  0  0
 16 17  4  0  0  0  0
 17 18  1  0  0  0  0
 18 19  1  0  0  0  0
 19 20  1  0  0  0  0
 20 21  2  0  0  0  0
 21 22  1  0  0  0  0
 22 23  1  0  0  0  0
 23 24  1  0  0  0  0
 24 25  4  0  0  0  0
 23 26  4  0  0  0  0
 26 27  1  0  0  0  0
 27 28  1  0  0  0  0
 20 29  4  0  0  0  0
 26 29  4  0  0  0  0
 17 30  1  0  0  0  0
  3 31  1  0  0  0  0
 31 32  1  0  0  0  0
 31 33  1  0  0  0  0
  5 34  1  0  0  0  0
  8 35  1  0  0  0  0
  8 36  1  0  0  0  0
  8 37  1  0  0  0  0
 11 38  1  0  0  0  0
 11 39  1  0  0  0  0
 11 40  1  0  0  0  0
 12 41  1  0  0  0  0
 13 42  1  0  0  0  0
 14 43  1  0  0  0  0
 14 44  1  0  0  0  0
 15 45  1  0  0  0  0
 15 46  1  0  0  0  0
  2 47  1  0  0  0  0
 16 48  1  0  0  0  0
 18 49  1  0  0  0  0
 18 50  1  0  0  0  0
 19 51  1  0  0  0  0
 19 52  1  0  0  0  0
 21 53  1  0  0  0  0
 22 54  1  0  0  0  0
 25 55  1  0  0  0  0
 22 56  1  0  0  0  0
 25 57  1  0  0  0  0
 28 58  1  0  0  0  0
 28 59  1  0  0  0  0
 28 60  1  0  0  0  0
 29 61  1  0  0  0  0
 30 62  1  0  0  0  0
 30 63  1  0  0  0  0
 30 64  1  0  0  0  0
 31 65  1  0  0  0  0
 32 66  1  0  0  0  0
 32 67  1  0  0  0  0
 32 68  1  0  0  0  0
 33 69  1  0  0  0  0
 33 70  1  0  0  0  0
 33 71  1  0  0  0  0
  1 72  1  0  0  0  0
M  CHG  1   1   1
M  END
