 xtb: 6.6.1 (8d0f1dd)
          06052419573D

 25 26  0     0  0            999 V2000
    3.1294    0.9307    0.8098 C   0  0  0  0  0  0  0  0  0  0  0  0
    2.4007    0.0505   -0.0583 N   0  0  0  0  0  0  0  0  0  0  0  0
    2.8934   -0.9464   -0.7951 C   0  0  0  0  0  0  0  0  0  0  0  0
    1.9613   -1.5710   -1.4949 N   0  0  0  0  0  0  0  0  0  0  0  0
    0.8143   -0.9694   -1.2110 C   0  0  0  0  0  0  0  0  0  0  0  0
    1.0336    0.0693   -0.2926 C   0  0  0  0  0  0  0  0  0  0  0  0
    0.1783    1.0468    0.2663 C   0  0  0  0  0  0  0  0  0  0  0  0
    0.4111    2.0105    0.9249 O   0  0  0  0  0  0  0  0  0  0  0  0
   -1.2900    0.8312   -0.1077 N   0  0  0  0  0  0  0  0  0  0  0  0
   -1.9299    1.9409   -0.7973 C   0  0  0  0  0  0  0  0  0  0  0  0
   -1.9632   -0.1441    0.3406 C   0  0  0  0  0  0  0  0  0  0  0  0
   -3.2004   -0.5501    0.3886 O   0  0  0  0  0  0  0  0  0  0  0  0
   -2.0480   -1.2073    1.1401 N   0  0  0  0  0  0  0  0  0  0  0  0
   -1.7590   -2.5726    0.8374 C   0  0  0  0  0  0  0  0  0  0  0  0
    2.7249    0.8886    1.8218 H   0  0  0  0  0  0  0  0  0  0  0  0
    4.1753    0.6320    0.8253 H   0  0  0  0  0  0  0  0  0  0  0  0
    3.0530    1.9609    0.4583 H   0  0  0  0  0  0  0  0  0  0  0  0
    3.9323   -1.2120   -0.8222 H   0  0  0  0  0  0  0  0  0  0  0  0
   -1.6247    2.8662   -0.3073 H   0  0  0  0  0  0  0  0  0  0  0  0
   -1.5945    1.9585   -1.8344 H   0  0  0  0  0  0  0  0  0  0  0  0
   -3.0123    1.8383   -0.7572 H   0  0  0  0  0  0  0  0  0  0  0  0
   -0.7334   -2.7488    1.1633 H   0  0  0  0  0  0  0  0  0  0  0  0
   -1.8630   -2.8233   -0.2200 H   0  0  0  0  0  0  0  0  0  0  0  0
   -2.4286   -3.1895    1.4358 H   0  0  0  0  0  0  0  0  0  0  0  0
   -0.1001   -1.2716   -1.6830 H   0  0  0  0  0  0  0  0  0  0  0  0
  1  2  1  0  0  0  0
  2  3  4  0  0  0  0
  3  4  4  0  0  0  0
  4  5  4  0  0  0  0
  2  6  1  0  0  0  0
  5  6  4  0  0  0  0
  6  7  1  0  0  0  0
  7  8  2  0  0  0  0
  7  9  1  0  0  0  0
  9 10  1  0  0  0  0
  9 11  2  0  0  0  0
 11 12  1  0  0  0  0
 11 13  1  0  0  0  0
 12 13  1  0  0  0  0
 13 14  1  0  0  0  0
  1 15  1  0  0  0  0
  1 16  1  0  0  0  0
  1 17  1  0  0  0  0
  3 18  1  0  0  0  0
 10 19  1  0  0  0  0
 10 20  1  0  0  0  0
 10 21  1  0  0  0  0
 14 22  1  0  0  0  0
 14 23  1  0  0  0  0
 14 24  1  0  0  0  0
  5 25  1  0  0  0  0
M  CHG  1   1   1
M  END
