          63
 
N             -2.19240259        2.55593151        2.04243756
C             -1.93259157        2.67991051        0.70833433
C             -2.34121544        1.84214650       -0.26966639
C             -3.12381134        0.63314895        0.00240100
C             -4.20661526        0.28035867       -0.81167505
C             -4.95422671       -0.85709469       -0.56825817
O             -6.02117529       -1.25964674       -1.29334659
C             -6.46906187       -0.45337544       -2.35745148
C             -4.61255994       -1.70179334        0.52262611
O             -5.39590254       -2.78940539        0.68036813
C             -5.15274202       -3.65642946        1.76249376
C             -3.53162668       -1.35762228        1.32015131
C             -2.79815573       -0.20835512        1.06469798
C             -1.98734542        2.13931934       -1.70019231
C             -1.10547802        1.02514176       -2.31641680
C              0.22419371        0.99225413       -1.67967428
N              0.72885829       -0.00997561       -0.97625488
C              2.09309259        0.05195599       -0.50834206
C              3.05822450       -0.64160828       -1.49007147
C              4.48141506       -0.45206511       -1.04624256
C              5.13558804        0.74475012       -1.28901979
C              6.44003271        0.94015642       -0.86332063
C              7.11842248       -0.06166846       -0.18498041
O              8.38330567        0.01769065        0.27313810
C              9.11239235        1.20564236        0.06790612
C              6.45820486       -1.29535694        0.06331524
O              7.19429076       -2.21865898        0.71604347
C              6.64281979       -3.49017037        0.96062365
C              5.15085778       -1.46482695       -0.36457149
C              0.03774664       -1.26801045       -0.82800782
H             -4.48453605        0.93152865       -1.62299999
H             -6.75669707        0.54399061       -2.01067287
H             -7.34420254       -0.95988933       -2.75983157
H             -5.70983131       -0.36465246       -3.14258907
H             -5.27210775       -3.14299491        2.72171186
H             -5.89982165       -4.44331431        1.67933439
H             -4.15331449       -4.09935645        1.70699886
H             -3.25152161       -1.98111084        2.15423259
H             -1.94977515        0.02048411        1.69097703
H             -2.89067004        2.22126872       -2.30630071
H             -1.46035618        3.09170965       -1.76234448
H             -1.62406895        0.07177933       -2.23647571
H             -0.97487117        1.26123932       -3.37749883
H             -1.32786598        3.53752965        0.44256573
H              0.82585617        1.88564735       -1.74355504
H              2.15916267       -0.42603322        0.47171496
H              2.38912839        1.09665356       -0.39845232
H              2.91802222       -0.20113870       -2.47936401
H              2.82087666       -1.70401509       -1.54904867
H              4.63433578        1.53510592       -1.82707757
H              6.92438113        1.87968948       -1.07271661
H              8.62886763        2.06078718        0.55018489
H              9.24685975        1.41438727       -0.99786761
H             10.08414724        1.03472565        0.52708222
H              7.42532119       -4.05597183        1.46244184
H              5.76603538       -3.42977610        1.61350769
H              6.37174707       -3.99595147        0.02856094
H              4.64159731       -2.39815690       -0.18233931
H             -0.05888237       -1.78238581       -1.78684018
H             -0.95919180       -1.10781141       -0.41249709
H              0.59705916       -1.90561382       -0.14813950
H             -2.97912698        1.97216140        2.29617889
H             -2.09075842        3.38530148        2.60153392
