 xtb: 6.6.1 (8d0f1dd)
          04062411143D

 72 72  0     0  0            999 V2000
   -1.8363    2.9219    2.3058 N   0  0  0  0  0  0  0  0  0  0  0  0
   -1.7720    2.1804    1.3024 C   0  0  0  0  0  0  0  0  0  0  0  0
   -2.8806    1.9995    0.3016 C   0  0  0  0  0  0  0  0  0  0  0  0
   -3.3437    0.5522    0.3198 C   0  0  0  0  0  0  0  0  0  0  0  0
   -4.1715    0.0745   -0.6985 C   0  0  0  0  0  0  0  0  0  0  0  0
   -4.6144   -1.2374   -0.7157 C   0  0  0  0  0  0  0  0  0  0  0  0
   -5.4094   -1.7783   -1.6636 O   0  0  0  0  0  0  0  0  0  0  0  0
   -5.9349   -0.9501   -2.6738 C   0  0  0  0  0  0  0  0  0  0  0  0
   -4.2189   -2.1231    0.3223 C   0  0  0  0  0  0  0  0  0  0  0  0
   -4.6792   -3.3869    0.2146 O   0  0  0  0  0  0  0  0  0  0  0  0
   -4.3849   -4.3105    1.2360 C   0  0  0  0  0  0  0  0  0  0  0  0
   -3.4144   -1.6375    1.3405 C   0  0  0  0  0  0  0  0  0  0  0  0
   -2.9848   -0.3158    1.3388 C   0  0  0  0  0  0  0  0  0  0  0  0
   -2.2613    2.3535   -1.0773 C   0  0  0  0  0  0  0  0  0  0  0  0
   -1.3619    1.2627   -1.6899 C   0  0  0  0  0  0  0  0  0  0  0  0
   -0.0822    1.0699   -0.9747 C   0  0  0  0  0  0  0  0  0  0  0  0
    0.4289   -0.0996   -0.6043 N   0  0  0  0  0  0  0  0  0  0  0  0
    1.7905   -0.1873   -0.1340 C   0  0  0  0  0  0  0  0  0  0  0  0
    2.7223   -0.7829   -1.2098 C   0  0  0  0  0  0  0  0  0  0  0  0
    4.1643   -0.6042   -0.8025 C   0  0  0  0  0  0  0  0  0  0  0  0
    4.7904    0.5198   -1.2459 C   0  0  0  0  0  0  0  0  0  0  0  0
    6.1114    0.9053   -1.0142 C   0  0  0  0  0  0  0  0  0  0  0  0
    7.2559    1.3079   -0.9847 C   0  0  0  0  0  0  0  0  0  0  0  0
    8.4871    1.6445   -0.8231 O   0  0  0  0  0  0  0  0  0  0  0  0
    8.7573    3.0108   -0.5033 C   0  0  0  0  0  0  0  0  0  0  0  0
    5.9233   -1.5685    0.6395 C   0  0  0  0  0  0  0  0  0  0  0  0
    6.4995   -2.4465    1.4620 O   0  0  0  0  0  0  0  0  0  0  0  0
    5.8100   -3.6313    1.8064 C   0  0  0  0  0  0  0  0  0  0  0  0
    4.7102   -1.6222    0.0516 C   0  0  0  0  0  0  0  0  0  0  0  0
   -0.2826   -1.3434   -0.7759 C   0  0  0  0  0  0  0  0  0  0  0  0
   -4.1155    2.9088    0.5711 C   0  0  0  0  0  0  0  0  0  0  0  0
   -4.7893    2.5584    1.8955 C   0  0  0  0  0  0  0  0  0  0  0  0
   -3.7833    4.3981    0.5401 C   0  0  0  0  0  0  0  0  0  0  0  0
   -4.4811    0.7445   -1.4833 H   0  0  0  0  0  0  0  0  0  0  0  0
   -6.5213   -0.1275   -2.2535 H   0  0  0  0  0  0  0  0  0  0  0  0
   -6.5859   -1.5897   -3.2664 H   0  0  0  0  0  0  0  0  0  0  0  0
   -5.1451   -0.5468   -3.3164 H   0  0  0  0  0  0  0  0  0  0  0  0
   -4.7755   -3.9784    2.2024 H   0  0  0  0  0  0  0  0  0  0  0  0
   -4.8801   -5.2348    0.9453 H   0  0  0  0  0  0  0  0  0  0  0  0
   -3.3076   -4.4881    1.3189 H   0  0  0  0  0  0  0  0  0  0  0  0
   -3.1194   -2.2792    2.1547 H   0  0  0  0  0  0  0  0  0  0  0  0
   -2.3793    0.0319    2.1613 H   0  0  0  0  0  0  0  0  0  0  0  0
   -3.0678    2.5548   -1.7818 H   0  0  0  0  0  0  0  0  0  0  0  0
   -1.6817    3.2715   -0.9713 H   0  0  0  0  0  0  0  0  0  0  0  0
   -1.9175    0.3310   -1.7737 H   0  0  0  0  0  0  0  0  0  0  0  0
   -1.1196    1.6002   -2.7063 H   0  0  0  0  0  0  0  0  0  0  0  0
   -0.8690    1.6096    1.0160 H   0  0  0  0  0  0  0  0  0  0  0  0
    0.5510    1.9354   -0.8465 H   0  0  0  0  0  0  0  0  0  0  0  0
    1.8229   -0.8028    0.7698 H   0  0  0  0  0  0  0  0  0  0  0  0
    2.1454    0.8133    0.1220 H   0  0  0  0  0  0  0  0  0  0  0  0
    2.5343   -0.2585   -2.1511 H   0  0  0  0  0  0  0  0  0  0  0  0
    2.4906   -1.8404   -1.3585 H   0  0  0  0  0  0  0  0  0  0  0  0
    4.2172    1.2191   -1.8451 H   0  0  0  0  0  0  0  0  0  0  0  0
    6.5785   -0.7220    0.4834 H   0  0  0  0  0  0  0  0  0  0  0  0
    8.1644    3.3283    0.3621 H   0  0  0  0  0  0  0  0  0  0  0  0
    8.5433    3.6633   -1.3601 H   0  0  0  0  0  0  0  0  0  0  0  0
    9.8212    3.0574   -0.2597 H   0  0  0  0  0  0  0  0  0  0  0  0
    6.4590   -4.1608    2.5015 H   0  0  0  0  0  0  0  0  0  0  0  0
    4.8585   -3.4047    2.2949 H   0  0  0  0  0  0  0  0  0  0  0  0
    5.6305   -4.2544    0.9258 H   0  0  0  0  0  0  0  0  0  0  0  0
    4.0676   -2.4765    0.2217 H   0  0  0  0  0  0  0  0  0  0  0  0
   -0.3428   -1.6236   -1.8302 H   0  0  0  0  0  0  0  0  0  0  0  0
   -1.2935   -1.2645   -0.3725 H   0  0  0  0  0  0  0  0  0  0  0  0
    0.2409   -2.1297   -0.2375 H   0  0  0  0  0  0  0  0  0  0  0  0
   -4.8308    2.7028   -0.2340 H   0  0  0  0  0  0  0  0  0  0  0  0
   -4.1191    2.7716    2.7220 H   0  0  0  0  0  0  0  0  0  0  0  0
   -5.0697    1.5084    1.9284 H   0  0  0  0  0  0  0  0  0  0  0  0
   -5.6887    3.1565    2.0158 H   0  0  0  0  0  0  0  0  0  0  0  0
   -3.0516    4.6354    1.3060 H   0  0  0  0  0  0  0  0  0  0  0  0
   -3.4031    4.7104   -0.4288 H   0  0  0  0  0  0  0  0  0  0  0  0
   -4.6857    4.9686    0.7432 H   0  0  0  0  0  0  0  0  0  0  0  0
   -1.0132    2.9904    2.8965 H   0  0  0  0  0  0  0  0  0  0  0  0
  1  2  2  0  0  0  0
  2  3  1  0  0  0  0
  3  4  1  0  0  0  0
  4  5  4  0  0  0  0
  5  6  4  0  0  0  0
  6  7  1  0  0  0  0
  7  8  1  0  0  0  0
  6  9  4  0  0  0  0
  9 10  1  0  0  0  0
 10 11  1  0  0  0  0
  9 12  4  0  0  0  0
  4 13  4  0  0  0  0
 12 13  4  0  0  0  0
  3 14  1  0  0  0  0
 14 15  1  0  0  0  0
 15 16  1  0  0  0  0
 16 17  4  0  0  0  0
 17 18  1  0  0  0  0
 18 19  1  0  0  0  0
 19 20  1  0  0  0  0
 20 21  2  0  0  0  0
 21 22  4  0  0  0  0
 22 23  3  0  0  0  0
 23 24  1  0  0  0  0
 24 25  1  0  0  0  0
 26 27  1  0  0  0  0
 27 28  1  0  0  0  0
 20 29  1  0  0  0  0
 26 29  2  0  0  0  0
 17 30  1  0  0  0  0
  3 31  1  0  0  0  0
 31 32  1  0  0  0  0
 31 33  1  0  0  0  0
  5 34  1  0  0  0  0
  8 35  1  0  0  0  0
  8 36  1  0  0  0  0
  8 37  1  0  0  0  0
 11 38  1  0  0  0  0
 11 39  1  0  0  0  0
 11 40  1  0  0  0  0
 12 41  1  0  0  0  0
 13 42  1  0  0  0  0
 14 43  1  0  0  0  0
 14 44  1  0  0  0  0
 15 45  1  0  0  0  0
 15 46  1  0  0  0  0
  2 47  1  0  0  0  0
 16 48  1  0  0  0  0
 18 49  1  0  0  0  0
 18 50  1  0  0  0  0
 19 51  1  0  0  0  0
 19 52  1  0  0  0  0
 21 53  1  0  0  0  0
 26 54  1  0  0  0  0
 25 55  1  0  0  0  0
 25 56  1  0  0  0  0
 25 57  1  0  0  0  0
 28 58  1  0  0  0  0
 28 59  1  0  0  0  0
 28 60  1  0  0  0  0
 29 61  1  0  0  0  0
 30 62  1  0  0  0  0
 30 63  1  0  0  0  0
 30 64  1  0  0  0  0
 31 65  1  0  0  0  0
 32 66  1  0  0  0  0
 32 67  1  0  0  0  0
 32 68  1  0  0  0  0
 33 69  1  0  0  0  0
 33 70  1  0  0  0  0
 33 71  1  0  0  0  0
  1 72  1  0  0  0  0
M  CHG  1   1   1
M  END
