          24
 
C              3.25081144        1.11858936        0.01957581
N              2.26076605        0.07961144        0.00155198
C              2.47911057       -1.25674162       -0.01019992
N              1.36998647       -1.96046095       -0.00980740
C              0.36826556       -1.05550178        0.00486566
C              0.90863048        0.24199773        0.01255191
C              0.07234607        1.41786337        0.00062983
O              0.45928598        2.56477037       -0.01771416
N             -1.28177108        1.08152571        0.00522207
C             -2.24725569        2.16600997       -0.00731482
C             -1.83668202       -0.19305896        0.00848866
O             -3.02875326       -0.35714255        0.01004451
N             -0.95778236       -1.28108648        0.00746649
C             -1.48441493       -2.62404785       -0.00600840
H              3.74907890        1.14942905        0.99114698
H              4.00198454        0.93537698       -0.74946368
H              2.76545787        2.07806606       -0.15899432
H              3.45955232       -1.69113581       -0.01873232
H             -1.70615391        3.10982010       -0.00389323
H             -2.87677192        2.09269377       -0.89591770
H             -2.89605600        2.09571486        0.86752444
H             -1.12133038       -3.17081800        0.86519064
H             -1.14827683       -3.14254946       -0.90516777
H             -2.57174648       -2.56985359        0.01019485
