          39
 
N             -1.27346643        3.09366322        1.07293693
C             -2.38940852        2.62258532        1.09517997
C             -3.58018003        2.35677909        0.40947825
C             -3.86449261        0.87369043        0.30631948
C             -4.94566334        0.42199515       -0.44985635
C             -5.24431017       -0.92680006       -0.54101254
O             -6.26491820       -1.45292003       -1.24875455
C             -7.14156690       -0.59270856       -1.93765525
C             -4.44284295       -1.86947146        0.15593000
O             -4.81776690       -3.15989503        0.02262183
C             -4.12616177       -4.15063019        0.74405681
C             -3.36865066       -1.41164455        0.90037999
C             -3.08096567       -0.05407910        0.97135307
C             -3.45918339        2.98649599       -1.16938182
C             -2.77072704        2.14793392       -2.08726543
C             -4.75558924        3.08252610        1.13167487
C             -4.89126582        2.53827847        2.55495836
C             -4.58161518        4.59798699        1.16666917
H             -5.56157887        1.13323539       -0.97410127
H             -7.65183412        0.09221158       -1.25347108
H             -7.87657974       -1.24239853       -2.40853660
H             -6.61981687       -0.01985974       -2.71075064
H             -4.16825836       -3.96604746        1.82197234
H             -4.63628033       -5.08505748        0.51913092
H             -3.08089061       -4.22482793        0.42591593
H             -2.75471836       -2.10563964        1.45184516
H             -2.24581102        0.27610720        1.57256544
H             -4.50933192        3.11094303       -1.42047226
H             -2.97052265        3.94558305       -1.02938052
H             -3.25212282        1.28978248       -2.52179064
H             -1.71707085        2.26657850       -2.25458336
H             -5.67318957        2.84401328        0.58650422
H             -4.02016102        2.80504204        3.15079058
H             -4.99102472        1.45525060        2.55256051
H             -5.77258381        2.96177390        3.02961465
H             -3.63632623        4.87089961        1.63112252
H             -4.61795544        5.03283891        0.17199558
H             -5.38594700        5.03804449        1.75125897
H             -0.64271496        3.17331780        1.85550317
