 xtb: 6.6.1 (8d0f1dd)
          06052419573D

 25 25  0     0  0            999 V2000
    3.4190    1.2523    0.0571 C   0  0  0  0  0  0  0  0  0  0  0  0
    2.4703    0.1704    0.0323 N   0  0  0  0  0  0  0  0  0  0  0  0
    2.7452   -1.1301    0.0626 C   0  0  0  0  0  0  0  0  0  0  0  0
    1.6049   -1.8450    0.0347 N   0  0  0  0  0  0  0  0  0  0  0  0
    0.5562   -0.9637   -0.0153 C   0  0  0  0  0  0  0  0  0  0  0  0
    1.1031    0.3116   -0.0155 C   0  0  0  0  0  0  0  0  0  0  0  0
    0.2834    1.5006   -0.0523 C   0  0  0  0  0  0  0  0  0  0  0  0
    0.6693    2.6475   -0.0738 O   0  0  0  0  0  0  0  0  0  0  0  0
   -1.0934    1.1447   -0.0586 N   0  0  0  0  0  0  0  0  0  0  0  0
   -2.0338    2.2573   -0.0715 C   0  0  0  0  0  0  0  0  0  0  0  0
   -1.6105   -0.0648   -0.0576 C   0  0  0  0  0  0  0  0  0  0  0  0
   -4.0926   -3.0919    0.0956 O   0  0  0  0  0  0  0  0  0  0  0  0
   -0.7994   -1.1823   -0.0485 N   0  0  0  0  0  0  0  0  0  0  0  0
   -1.3511   -2.3964   -0.0687 C   0  0  0  0  0  0  0  0  0  0  0  0
    3.9421    1.2747    1.0140 H   0  0  0  0  0  0  0  0  0  0  0  0
    4.1515    1.1313   -0.7406 H   0  0  0  0  0  0  0  0  0  0  0  0
    2.8842    2.1920   -0.0775 H   0  0  0  0  0  0  0  0  0  0  0  0
    3.7302   -1.5530    0.1041 H   0  0  0  0  0  0  0  0  0  0  0  0
   -1.4708    3.1880   -0.0364 H   0  0  0  0  0  0  0  0  0  0  0  0
   -2.6346    2.2238   -0.9783 H   0  0  0  0  0  0  0  0  0  0  0  0
   -2.6964    2.1896    0.7887 H   0  0  0  0  0  0  0  0  0  0  0  0
   -0.7261   -3.2704   -0.0703 H   0  0  0  0  0  0  0  0  0  0  0  0
   -2.4383   -2.4995   -0.0577 H   0  0  0  0  0  0  0  0  0  0  0  0
   -5.0017   -2.8144    0.2151 H   0  0  0  0  0  0  0  0  0  0  0  0
    1.5498   -2.8542    0.0493 H   0  0  0  0  0  0  0  0  0  0  0  0
  1  2  1  0  0  0  0
  2  3  4  0  0  0  0
  3  4  4  0  0  0  0
  4  5  1  0  0  0  0
  2  6  1  0  0  0  0
  5  6  4  0  0  0  0
  6  7  1  0  0  0  0
  7  8  2  0  0  0  0
  7  9  1  0  0  0  0
  9 10  1  0  0  0  0
  9 11  4  0  0  0  0
  5 13  1  0  0  0  0
 11 13  1  0  0  0  0
 13 14  4  0  0  0  0
  1 15  1  0  0  0  0
  1 16  1  0  0  0  0
  1 17  1  0  0  0  0
  3 18  1  0  0  0  0
 10 19  1  0  0  0  0
 10 20  1  0  0  0  0
 10 21  1  0  0  0  0
 14 22  1  0  0  0  0
 14 23  1  0  0  0  0
 12 24  1  0  0  0  0
  4 25  1  0  0  0  0
M  CHG  1   1   1
M  END
