 xtb: 6.6.1 (8d0f1dd)
          06052419583D

 25 25  0     0  0            999 V2000
    2.8319    1.1815   -0.5174 C   0  0  0  0  0  0  0  0  0  0  0  0
    2.1068   -0.0121   -0.1759 N   0  0  0  0  0  0  0  0  0  0  0  0
    2.6166   -1.2314   -0.1176 C   0  0  0  0  0  0  0  0  0  0  0  0
    1.6528   -2.0993    0.2182 N   0  0  0  0  0  0  0  0  0  0  0  0
    0.4736   -1.4118    0.3947 C   0  0  0  0  0  0  0  0  0  0  0  0
    0.7692   -0.0749    0.1282 C   0  0  0  0  0  0  0  0  0  0  0  0
   -0.0566    1.1367    0.3070 C   0  0  0  0  0  0  0  0  0  0  0  0
    0.4219    2.1384    0.7910 O   0  0  0  0  0  0  0  0  0  0  0  0
   -1.3928    1.0619   -0.0569 N   0  0  0  0  0  0  0  0  0  0  0  0
   -2.2772    2.1124    0.4282 C   0  0  0  0  0  0  0  0  0  0  0  0
   -1.8665    0.1841   -0.9978 C   0  0  0  0  0  0  0  0  0  0  0  0
   -1.2136   -0.6492   -1.5709 O   0  0  0  0  0  0  0  0  0  0  0  0
   -0.6615   -1.9210    0.8937 N   0  0  0  0  0  0  0  0  0  0  0  0
   -1.2330   -3.0137    0.6158 C   0  0  0  0  0  0  0  0  0  0  0  0
    2.6475    1.9495    0.2349 H   0  0  0  0  0  0  0  0  0  0  0  0
    3.8950    0.9599   -0.5704 H   0  0  0  0  0  0  0  0  0  0  0  0
    2.4943    1.5636   -1.4818 H   0  0  0  0  0  0  0  0  0  0  0  0
    3.6416   -1.4879   -0.3048 H   0  0  0  0  0  0  0  0  0  0  0  0
   -1.7409    2.6955    1.1733 H   0  0  0  0  0  0  0  0  0  0  0  0
   -2.5784    2.7730   -0.3845 H   0  0  0  0  0  0  0  0  0  0  0  0
   -3.1611    1.6648    0.8800 H   0  0  0  0  0  0  0  0  0  0  0  0
   -2.1058   -3.2776    1.1931 H   0  0  0  0  0  0  0  0  0  0  0  0
   -0.9440   -3.6709   -0.2023 H   0  0  0  0  0  0  0  0  0  0  0  0
   -2.9357    0.3400   -1.2003 H   0  0  0  0  0  0  0  0  0  0  0  0
    1.7763   -3.0931    0.3537 H   0  0  0  0  0  0  0  0  0  0  0  0
  1  2  1  0  0  0  0
  2  3  4  0  0  0  0
  3  4  4  0  0  0  0
  4  5  1  0  0  0  0
  2  6  1  0  0  0  0
  5  6  4  0  0  0  0
  6  7  1  0  0  0  0
  7  8  2  0  0  0  0
  7  9  1  0  0  0  0
  9 10  1  0  0  0  0
  9 11  1  0  0  0  0
 11 12  2  0  0  0  0
  5 13  4  0  0  0  0
 13 14  2  0  0  0  0
  1 15  1  0  0  0  0
  1 16  1  0  0  0  0
  1 17  1  0  0  0  0
  3 18  1  0  0  0  0
 10 19  1  0  0  0  0
 10 20  1  0  0  0  0
 10 21  1  0  0  0  0
 14 22  1  0  0  0  0
 14 23  1  0  0  0  0
 11 24  1  0  0  0  0
  4 25  1  0  0  0  0
M  CHG  1   1   1
M  END
