 xtb: 6.6.1 (8d0f1dd)
          06052419583D

 25 26  0     0  0            999 V2000
    3.2213    1.1370    0.0231 C   0  0  0  0  0  0  0  0  0  0  0  0
    2.2726    0.0552    0.0020 N   0  0  0  0  0  0  0  0  0  0  0  0
    2.5435   -1.2419   -0.0062 C   0  0  0  0  0  0  0  0  0  0  0  0
    1.3914   -1.9516   -0.0081 N   0  0  0  0  0  0  0  0  0  0  0  0
    0.3534   -1.0668   -0.0006 C   0  0  0  0  0  0  0  0  0  0  0  0
    0.9079    0.2025    0.0068 C   0  0  0  0  0  0  0  0  0  0  0  0
    0.0795    1.3965   -0.0020 C   0  0  0  0  0  0  0  0  0  0  0  0
    0.4853    2.5335   -0.0169 O   0  0  0  0  0  0  0  0  0  0  0  0
   -1.2720    1.0655   -0.0030 N   0  0  0  0  0  0  0  0  0  0  0  0
   -2.2314    2.1627   -0.0130 C   0  0  0  0  0  0  0  0  0  0  0  0
   -1.8475   -0.1928    0.0021 C   0  0  0  0  0  0  0  0  0  0  0  0
   -3.0335   -0.3594    0.0049 O   0  0  0  0  0  0  0  0  0  0  0  0
   -0.9675   -1.2995   -0.0010 N   0  0  0  0  0  0  0  0  0  0  0  0
   -1.5216   -2.6391   -0.0067 C   0  0  0  0  0  0  0  0  0  0  0  0
    3.7196    1.1835    0.9925 H   0  0  0  0  0  0  0  0  0  0  0  0
    3.9734    0.9964   -0.7520 H   0  0  0  0  0  0  0  0  0  0  0  0
    2.6885    2.0730   -0.1431 H   0  0  0  0  0  0  0  0  0  0  0  0
    3.5253   -1.6730   -0.0119 H   0  0  0  0  0  0  0  0  0  0  0  0
   -1.6795    3.0986   -0.0177 H   0  0  0  0  0  0  0  0  0  0  0  0
   -2.8958    2.0824   -0.8723 H   0  0  0  0  0  0  0  0  0  0  0  0
   -2.8446    2.1182    0.8946 H   0  0  0  0  0  0  0  0  0  0  0  0
   -1.2082   -3.1864    0.8825 H   0  0  0  0  0  0  0  0  0  0  0  0
   -1.2185   -3.1747   -0.9066 H   0  0  0  0  0  0  0  0  0  0  0  0
   -2.6068   -2.5420    0.0002 H   0  0  0  0  0  0  0  0  0  0  0  0
    1.3257   -2.9596   -0.0165 H   0  0  0  0  0  0  0  0  0  0  0  0
  1  2  1  0  0  0  0
  2  3  4  0  0  0  0
  3  4  4  0  0  0  0
  4  5  1  0  0  0  0
  2  6  1  0  0  0  0
  5  6  4  0  0  0  0
  6  7  1  0  0  0  0
  7  8  2  0  0  0  0
  7  9  1  0  0  0  0
  9 10  1  0  0  0  0
  9 11  1  0  0  0  0
 11 12  2  0  0  0  0
  5 13  4  0  0  0  0
 11 13  1  0  0  0  0
 13 14  1  0  0  0  0
  1 15  1  0  0  0  0
  1 16  1  0  0  0  0
  1 17  1  0  0  0  0
  3 18  1  0  0  0  0
 10 19  1  0  0  0  0
 10 20  1  0  0  0  0
 10 21  1  0  0  0  0
 14 22  1  0  0  0  0
 14 23  1  0  0  0  0
 14 24  1  0  0  0  0
  4 25  1  0  0  0  0
M  CHG  1   1   1
M  END
