 xtb: 6.6.1 (8d0f1dd)
          04062411163D

 72 73  0     0  0            999 V2000
   -1.6651    2.8135    2.2941 N   0  0  0  0  0  0  0  0  0  0  0  0
   -1.6279    2.1509    1.2363 C   0  0  0  0  0  0  0  0  0  0  0  0
   -2.7953    1.9498    0.3101 C   0  0  0  0  0  0  0  0  0  0  0  0
   -3.2818    0.5116    0.4056 C   0  0  0  0  0  0  0  0  0  0  0  0
   -4.1837    0.0208   -0.5409 C   0  0  0  0  0  0  0  0  0  0  0  0
   -4.6671   -1.2751   -0.4762 C   0  0  0  0  0  0  0  0  0  0  0  0
   -5.5353   -1.8277   -1.3493 O   0  0  0  0  0  0  0  0  0  0  0  0
   -6.0714   -1.0364   -2.3831 C   0  0  0  0  0  0  0  0  0  0  0  0
   -4.2404   -2.1296    0.5759 C   0  0  0  0  0  0  0  0  0  0  0  0
   -4.7608   -3.3735    0.5596 O   0  0  0  0  0  0  0  0  0  0  0  0
   -4.4557   -4.2570    1.6131 C   0  0  0  0  0  0  0  0  0  0  0  0
   -3.3495   -1.6349    1.5146 C   0  0  0  0  0  0  0  0  0  0  0  0
   -2.8760   -0.3313    1.4285 C   0  0  0  0  0  0  0  0  0  0  0  0
   -2.2566    2.2384   -1.1146 C   0  0  0  0  0  0  0  0  0  0  0  0
   -1.3473    1.1354   -1.6830 C   0  0  0  0  0  0  0  0  0  0  0  0
    0.0153    1.1045   -1.1035 C   0  0  0  0  0  0  0  0  0  0  0  0
    0.6623    0.0088   -0.7176 N   0  0  0  0  0  0  0  0  0  0  0  0
    2.1030    0.0145   -0.6146 C   0  0  0  0  0  0  0  0  0  0  0  0
    2.7369   -0.5228   -1.9038 C   0  0  0  0  0  0  0  0  0  0  0  0
    4.2731   -0.3937   -1.8567 C   0  0  0  0  0  0  0  0  0  0  0  0
    4.6985    0.9979   -1.6454 C   0  0  0  0  0  0  0  0  0  0  0  0
    5.6722    1.3584   -0.7851 C   0  0  0  0  0  0  0  0  0  0  0  0
    6.2948    0.4075    0.0558 C   0  0  0  0  0  0  0  0  0  0  0  0
    7.2595    0.6587    0.9340 O   0  0  0  0  0  0  0  0  0  0  0  0
    7.8096    1.9551    1.0305 C   0  0  0  0  0  0  0  0  0  0  0  0
    5.8523   -0.9660   -0.0005 C   0  0  0  0  0  0  0  0  0  0  0  0
    6.4812   -1.7715    0.8876 O   0  0  0  0  0  0  0  0  0  0  0  0
    6.1758   -3.1460    0.8875 C   0  0  0  0  0  0  0  0  0  0  0  0
    4.8912   -1.3462   -0.8784 C   0  0  0  0  0  0  0  0  0  0  0  0
   -0.0037   -1.2617   -0.5634 C   0  0  0  0  0  0  0  0  0  0  0  0
   -4.0007    2.8875    0.6197 C   0  0  0  0  0  0  0  0  0  0  0  0
   -4.6397    2.5557    1.9660 C   0  0  0  0  0  0  0  0  0  0  0  0
   -3.6342    4.3682    0.5752 C   0  0  0  0  0  0  0  0  0  0  0  0
   -4.5230    0.6678   -1.3326 H   0  0  0  0  0  0  0  0  0  0  0  0
   -6.6166   -0.1742   -1.9876 H   0  0  0  0  0  0  0  0  0  0  0  0
   -6.7631   -1.6846   -2.9175 H   0  0  0  0  0  0  0  0  0  0  0  0
   -5.2932   -0.6936   -3.0731 H   0  0  0  0  0  0  0  0  0  0  0  0
   -4.7689   -3.8513    2.5796 H   0  0  0  0  0  0  0  0  0  0  0  0
   -5.0171   -5.1654    1.4040 H   0  0  0  0  0  0  0  0  0  0  0  0
   -3.3867   -4.4913    1.6442 H   0  0  0  0  0  0  0  0  0  0  0  0
   -3.0211   -2.2547    2.3329 H   0  0  0  0  0  0  0  0  0  0  0  0
   -2.2046    0.0273    2.1932 H   0  0  0  0  0  0  0  0  0  0  0  0
   -3.1010    2.3643   -1.7911 H   0  0  0  0  0  0  0  0  0  0  0  0
   -1.7058    3.1796   -1.0992 H   0  0  0  0  0  0  0  0  0  0  0  0
   -1.8424    0.1700   -1.5959 H   0  0  0  0  0  0  0  0  0  0  0  0
   -1.2243    1.3534   -2.7523 H   0  0  0  0  0  0  0  0  0  0  0  0
   -0.7102    1.6693    0.8415 H   0  0  0  0  0  0  0  0  0  0  0  0
    0.6061    2.0063   -1.1736 H   0  0  0  0  0  0  0  0  0  0  0  0
    2.4135   -0.5949    0.2381 H   0  0  0  0  0  0  0  0  0  0  0  0
    2.4565    1.0363   -0.4552 H   0  0  0  0  0  0  0  0  0  0  0  0
    2.3615    0.0595   -2.7465 H   0  0  0  0  0  0  0  0  0  0  0  0
    2.4612   -1.5678   -2.0510 H   0  0  0  0  0  0  0  0  0  0  0  0
    4.6224   -0.6808   -2.8633 H   0  0  0  0  0  0  0  0  0  0  0  0
    5.9723    2.3937   -0.7161 H   0  0  0  0  0  0  0  0  0  0  0  0
    7.0672    2.6757    1.3855 H   0  0  0  0  0  0  0  0  0  0  0  0
    8.2147    2.2882    0.0712 H   0  0  0  0  0  0  0  0  0  0  0  0
    8.6153    1.8779    1.7581 H   0  0  0  0  0  0  0  0  0  0  0  0
    6.8148   -3.5878    1.6492 H   0  0  0  0  0  0  0  0  0  0  0  0
    5.1269   -3.3231    1.1470 H   0  0  0  0  0  0  0  0  0  0  0  0
    6.3948   -3.6044   -0.0816 H   0  0  0  0  0  0  0  0  0  0  0  0
    4.5682   -2.3728   -0.9468 H   0  0  0  0  0  0  0  0  0  0  0  0
   -0.2265   -1.7205   -1.5297 H   0  0  0  0  0  0  0  0  0  0  0  0
   -0.9376   -1.1352   -0.0116 H   0  0  0  0  0  0  0  0  0  0  0  0
    0.6415   -1.9341   -0.0021 H   0  0  0  0  0  0  0  0  0  0  0  0
   -4.7458    2.6985   -0.1619 H   0  0  0  0  0  0  0  0  0  0  0  0
   -3.9264    2.7210    2.7669 H   0  0  0  0  0  0  0  0  0  0  0  0
   -4.9753    1.5220    1.9985 H   0  0  0  0  0  0  0  0  0  0  0  0
   -5.4999    3.1995    2.1286 H   0  0  0  0  0  0  0  0  0  0  0  0
   -2.8866    4.5944    1.3292 H   0  0  0  0  0  0  0  0  0  0  0  0
   -3.2609    4.6660   -0.4011 H   0  0  0  0  0  0  0  0  0  0  0  0
   -4.5201    4.9611    0.7873 H   0  0  0  0  0  0  0  0  0  0  0  0
   -0.8066    2.9052    2.8281 H   0  0  0  0  0  0  0  0  0  0  0  0
  1  2  2  0  0  0  0
  2  3  1  0  0  0  0
  3  4  1  0  0  0  0
  4  5  4  0  0  0  0
  5  6  4  0  0  0  0
  6  7  1  0  0  0  0
  7  8  1  0  0  0  0
  6  9  4  0  0  0  0
  9 10  1  0  0  0  0
 10 11  1  0  0  0  0
  9 12  4  0  0  0  0
  4 13  4  0  0  0  0
 12 13  4  0  0  0  0
  3 14  1  0  0  0  0
 14 15  1  0  0  0  0
 15 16  1  0  0  0  0
 16 17  4  0  0  0  0
 17 18  1  0  0  0  0
 18 19  1  0  0  0  0
 19 20  1  0  0  0  0
 20 21  1  0  0  0  0
 21 22  2  0  0  0  0
 22 23  4  0  0  0  0
 23 24  1  0  0  0  0
 24 25  1  0  0  0  0
 23 26  1  0  0  0  0
 26 27  1  0  0  0  0
 27 28  1  0  0  0  0
 20 29  1  0  0  0  0
 26 29  2  0  0  0  0
 17 30  1  0  0  0  0
  3 31  1  0  0  0  0
 31 32  1  0  0  0  0
 31 33  1  0  0  0  0
  5 34  1  0  0  0  0
  8 35  1  0  0  0  0
  8 36  1  0  0  0  0
  8 37  1  0  0  0  0
 11 38  1  0  0  0  0
 11 39  1  0  0  0  0
 11 40  1  0  0  0  0
 12 41  1  0  0  0  0
 13 42  1  0  0  0  0
 14 43  1  0  0  0  0
 14 44  1  0  0  0  0
 15 45  1  0  0  0  0
 15 46  1  0  0  0  0
  2 47  1  0  0  0  0
 16 48  1  0  0  0  0
 18 49  1  0  0  0  0
 18 50  1  0  0  0  0
 19 51  1  0  0  0  0
 19 52  1  0  0  0  0
 20 53  1  0  0  0  0
 22 54  1  0  0  0  0
 25 55  1  0  0  0  0
 25 56  1  0  0  0  0
 25 57  1  0  0  0  0
 28 58  1  0  0  0  0
 28 59  1  0  0  0  0
 28 60  1  0  0  0  0
 29 61  1  0  0  0  0
 30 62  1  0  0  0  0
 30 63  1  0  0  0  0
 30 64  1  0  0  0  0
 31 65  1  0  0  0  0
 32 66  1  0  0  0  0
 32 67  1  0  0  0  0
 32 68  1  0  0  0  0
 33 69  1  0  0  0  0
 33 70  1  0  0  0  0
 33 71  1  0  0  0  0
  1 72  1  0  0  0  0
M  CHG  1   1   1
M  END
