 xtb: 6.6.1 (8d0f1dd)
          04062411133D

 72 73  0     0  0            999 V2000
   -1.7182    1.3483    2.0738 N   0  0  0  0  0  0  0  0  0  0  0  0
   -1.6275    1.2600    0.8402 C   0  0  0  0  0  0  0  0  0  0  0  0
   -2.8147    1.2823   -0.1074 C   0  0  0  0  0  0  0  0  0  0  0  0
   -3.6815    0.0422    0.0713 C   0  0  0  0  0  0  0  0  0  0  0  0
   -4.6838   -0.2047   -0.8690 C   0  0  0  0  0  0  0  0  0  0  0  0
   -5.5095   -1.3140   -0.7776 C   0  0  0  0  0  0  0  0  0  0  0  0
   -6.4963   -1.6232   -1.6373 O   0  0  0  0  0  0  0  0  0  0  0  0
   -6.7599   -0.7735   -2.7292 C   0  0  0  0  0  0  0  0  0  0  0  0
   -5.3360   -2.2294    0.3001 C   0  0  0  0  0  0  0  0  0  0  0  0
   -6.1664   -3.2848    0.3026 O   0  0  0  0  0  0  0  0  0  0  0  0
   -6.0782   -4.2290    1.3459 C   0  0  0  0  0  0  0  0  0  0  0  0
   -4.3553   -1.9616    1.2439 C   0  0  0  0  0  0  0  0  0  0  0  0
   -3.5454   -0.8417    1.1320 C   0  0  0  0  0  0  0  0  0  0  0  0
   -2.1630    1.2615   -1.5112 C   0  0  0  0  0  0  0  0  0  0  0  0
   -0.8346    0.5406   -1.3080 C   0  0  0  0  0  0  0  0  0  0  0  0
   -0.3274    1.1069    0.0281 C   0  0  0  0  0  0  0  0  0  0  0  0
    0.6722    0.3834    0.7479 N   0  0  0  0  0  0  0  0  0  0  0  0
    2.0464    0.7949    0.6042 C   0  0  0  0  0  0  0  0  0  0  0  0
    2.6512    0.5282   -0.7956 C   0  0  0  0  0  0  0  0  0  0  0  0
    4.1473    0.5650   -0.7202 C   0  0  0  0  0  0  0  0  0  0  0  0
    4.8577    1.7250   -0.9979 C   0  0  0  0  0  0  0  0  0  0  0  0
    6.2380    1.7569   -0.8850 C   0  0  0  0  0  0  0  0  0  0  0  0
    6.9424    0.6280   -0.4842 C   0  0  0  0  0  0  0  0  0  0  0  0
    8.2735    0.5438   -0.3334 O   0  0  0  0  0  0  0  0  0  0  0  0
    9.0740    1.6771   -0.5810 C   0  0  0  0  0  0  0  0  0  0  0  0
    6.2226   -0.5691   -0.1989 C   0  0  0  0  0  0  0  0  0  0  0  0
    6.9785   -1.6167    0.1740 O   0  0  0  0  0  0  0  0  0  0  0  0
    6.3609   -2.8497    0.4593 C   0  0  0  0  0  0  0  0  0  0  0  0
    4.8416   -0.5742   -0.3193 C   0  0  0  0  0  0  0  0  0  0  0  0
    0.4558   -1.0326    0.9235 C   0  0  0  0  0  0  0  0  0  0  0  0
   -3.6827    2.5511    0.1398 C   0  0  0  0  0  0  0  0  0  0  0  0
   -4.4946    2.4194    1.4247 C   0  0  0  0  0  0  0  0  0  0  0  0
   -2.8474    3.8286    0.2043 C   0  0  0  0  0  0  0  0  0  0  0  0
   -4.8371    0.4950   -1.6745 H   0  0  0  0  0  0  0  0  0  0  0  0
   -7.0564    0.2260   -2.3967 H   0  0  0  0  0  0  0  0  0  0  0  0
   -7.5875   -1.2345   -3.2647 H   0  0  0  0  0  0  0  0  0  0  0  0
   -5.8956   -0.6977   -3.3962 H   0  0  0  0  0  0  0  0  0  0  0  0
   -6.2842   -3.7708    2.3174 H   0  0  0  0  0  0  0  0  0  0  0  0
   -6.8395   -4.9758    1.1293 H   0  0  0  0  0  0  0  0  0  0  0  0
   -5.0950   -4.7087    1.3684 H   0  0  0  0  0  0  0  0  0  0  0  0
   -4.2145   -2.6212    2.0845 H   0  0  0  0  0  0  0  0  0  0  0  0
   -2.8233   -0.6544    1.9099 H   0  0  0  0  0  0  0  0  0  0  0  0
   -2.7804    0.7511   -2.2452 H   0  0  0  0  0  0  0  0  0  0  0  0
   -1.9854    2.2772   -1.8630 H   0  0  0  0  0  0  0  0  0  0  0  0
   -1.0073   -0.5324   -1.2202 H   0  0  0  0  0  0  0  0  0  0  0  0
   -0.1340    0.7180   -2.1226 H   0  0  0  0  0  0  0  0  0  0  0  0
    0.4117    1.0948    2.9153 H   0  0  0  0  0  0  0  0  0  0  0  0
    0.0448    2.1268   -0.1324 H   0  0  0  0  0  0  0  0  0  0  0  0
    2.6318    0.2533    1.3507 H   0  0  0  0  0  0  0  0  0  0  0  0
    2.1211    1.8616    0.8286 H   0  0  0  0  0  0  0  0  0  0  0  0
    2.2903    1.2776   -1.5005 H   0  0  0  0  0  0  0  0  0  0  0  0
    2.3279   -0.4560   -1.1382 H   0  0  0  0  0  0  0  0  0  0  0  0
    4.3344    2.6148   -1.3124 H   0  0  0  0  0  0  0  0  0  0  0  0
    6.7625    2.6702   -1.1136 H   0  0  0  0  0  0  0  0  0  0  0  0
    8.8025    2.5096    0.0748 H   0  0  0  0  0  0  0  0  0  0  0  0
    9.0035    1.9955   -1.6253 H   0  0  0  0  0  0  0  0  0  0  0  0
   10.0945    1.3657   -0.3661 H   0  0  0  0  0  0  0  0  0  0  0  0
    7.1698   -3.5276    0.7242 H   0  0  0  0  0  0  0  0  0  0  0  0
    5.6687   -2.7657    1.3029 H   0  0  0  0  0  0  0  0  0  0  0  0
    5.8300   -3.2426   -0.4132 H   0  0  0  0  0  0  0  0  0  0  0  0
    4.2868   -1.4751   -0.1082 H   0  0  0  0  0  0  0  0  0  0  0  0
    0.7182   -1.6179    0.0338 H   0  0  0  0  0  0  0  0  0  0  0  0
   -0.5910   -1.2148    1.1598 H   0  0  0  0  0  0  0  0  0  0  0  0
    1.0652   -1.3833    1.7554 H   0  0  0  0  0  0  0  0  0  0  0  0
   -4.3704    2.6296   -0.7092 H   0  0  0  0  0  0  0  0  0  0  0  0
   -3.8250    2.2297    2.2611 H   0  0  0  0  0  0  0  0  0  0  0  0
   -5.2100    1.6039    1.3616 H   0  0  0  0  0  0  0  0  0  0  0  0
   -5.0382    3.3410    1.6157 H   0  0  0  0  0  0  0  0  0  0  0  0
   -2.2112    3.8236    1.0860 H   0  0  0  0  0  0  0  0  0  0  0  0
   -2.2247    3.9630   -0.6767 H   0  0  0  0  0  0  0  0  0  0  0  0
   -3.5096    4.6877    0.2733 H   0  0  0  0  0  0  0  0  0  0  0  0
   -0.7763    1.2885    2.6371 H   0  0  0  0  0  0  0  0  0  0  0  0
  1  2  2  0  0  0  0
  2  3  1  0  0  0  0
  3  4  1  0  0  0  0
  4  5  4  0  0  0  0
  5  6  4  0  0  0  0
  6  7  1  0  0  0  0
  7  8  1  0  0  0  0
  6  9  4  0  0  0  0
  9 10  1  0  0  0  0
 10 11  1  0  0  0  0
  9 12  4  0  0  0  0
  4 13  4  0  0  0  0
 12 13  4  0  0  0  0
  3 14  1  0  0  0  0
 14 15  1  0  0  0  0
  2 16  1  0  0  0  0
 15 16  1  0  0  0  0
 16 17  1  0  0  0  0
 17 18  1  0  0  0  0
 18 19  1  0  0  0  0
 19 20  1  0  0  0  0
 20 21  4  0  0  0  0
 21 22  4  0  0  0  0
 22 23  4  0  0  0  0
 23 24  1  0  0  0  0
 24 25  1  0  0  0  0
 23 26  4  0  0  0  0
 26 27  1  0  0  0  0
 27 28  1  0  0  0  0
 20 29  4  0  0  0  0
 26 29  4  0  0  0  0
 17 30  1  0  0  0  0
  3 31  1  0  0  0  0
 31 32  1  0  0  0  0
 31 33  1  0  0  0  0
  5 34  1  0  0  0  0
  8 35  1  0  0  0  0
  8 36  1  0  0  0  0
  8 37  1  0  0  0  0
 11 38  1  0  0  0  0
 11 39  1  0  0  0  0
 11 40  1  0  0  0  0
 12 41  1  0  0  0  0
 13 42  1  0  0  0  0
 14 43  1  0  0  0  0
 14 44  1  0  0  0  0
 15 45  1  0  0  0  0
 15 46  1  0  0  0  0
 16 48  1  0  0  0  0
 18 49  1  0  0  0  0
 18 50  1  0  0  0  0
 19 51  1  0  0  0  0
 19 52  1  0  0  0  0
 21 53  1  0  0  0  0
 22 54  1  0  0  0  0
 25 55  1  0  0  0  0
 25 56  1  0  0  0  0
 25 57  1  0  0  0  0
 28 58  1  0  0  0  0
 28 59  1  0  0  0  0
 28 60  1  0  0  0  0
 29 61  1  0  0  0  0
 30 62  1  0  0  0  0
 30 63  1  0  0  0  0
 30 64  1  0  0  0  0
 31 65  1  0  0  0  0
 32 66  1  0  0  0  0
 32 67  1  0  0  0  0
 32 68  1  0  0  0  0
 33 69  1  0  0  0  0
 33 70  1  0  0  0  0
 33 71  1  0  0  0  0
  1 72  1  0  0  0  0
M  CHG  1   1   1
M  END
