 xtb: 6.6.1 (8d0f1dd)
          04062411133D

 72 73  0     0  0            999 V2000
   -1.6551    2.6689    1.9996 N   0  0  0  0  0  0  0  0  0  0  0  0
   -1.8266    1.8113    1.1050 C   0  0  0  0  0  0  0  0  0  0  0  0
   -3.0580    1.7322    0.2408 C   0  0  0  0  0  0  0  0  0  0  0  0
   -3.6550    0.3406    0.3475 C   0  0  0  0  0  0  0  0  0  0  0  0
   -4.6121   -0.0853   -0.5747 C   0  0  0  0  0  0  0  0  0  0  0  0
   -5.1733   -1.3509   -0.5036 C   0  0  0  0  0  0  0  0  0  0  0  0
   -6.0910   -1.8461   -1.3581 O   0  0  0  0  0  0  0  0  0  0  0  0
   -6.5850   -1.0298   -2.3937 C   0  0  0  0  0  0  0  0  0  0  0  0
   -4.7729   -2.2375    0.5344 C   0  0  0  0  0  0  0  0  0  0  0  0
   -5.3546   -3.4517    0.5190 O   0  0  0  0  0  0  0  0  0  0  0  0
   -5.0334   -4.3781    1.5309 C   0  0  0  0  0  0  0  0  0  0  0  0
   -3.8428   -1.7959    1.4640 C   0  0  0  0  0  0  0  0  0  0  0  0
   -3.2964   -0.5243    1.3723 C   0  0  0  0  0  0  0  0  0  0  0  0
   -2.5699    2.0216   -1.2069 C   0  0  0  0  0  0  0  0  0  0  0  0
   -1.8869    0.8540   -1.9282 C   0  0  0  0  0  0  0  0  0  0  0  0
   -0.5532    0.4726   -1.3582 C   0  0  0  0  0  0  0  0  0  0  0  0
   -0.1184   -0.6653   -1.0504 N   0  0  0  0  0  0  0  0  0  0  0  0
    3.0846    0.9617   -0.0406 C   0  0  0  0  0  0  0  0  0  0  0  0
    3.2932    0.4338   -1.4010 C   0  0  0  0  0  0  0  0  0  0  0  0
    4.5177    0.5936   -0.4698 C   0  0  0  0  0  0  0  0  0  0  0  0
    5.4328    1.6780   -0.7582 C   0  0  0  0  0  0  0  0  0  0  0  0
    6.7719    1.5627   -0.5302 C   0  0  0  0  0  0  0  0  0  0  0  0
    7.3225    0.3845    0.0010 C   0  0  0  0  0  0  0  0  0  0  0  0
    8.6148    0.1715    0.2425 O   0  0  0  0  0  0  0  0  0  0  0  0
    9.5713    1.1633   -0.0701 C   0  0  0  0  0  0  0  0  0  0  0  0
    6.4497   -0.7127    0.3270 C   0  0  0  0  0  0  0  0  0  0  0  0
    7.0844   -1.7786    0.8534 O   0  0  0  0  0  0  0  0  0  0  0  0
    6.3291   -2.9123    1.2177 C   0  0  0  0  0  0  0  0  0  0  0  0
    5.1092   -0.6106    0.0933 C   0  0  0  0  0  0  0  0  0  0  0  0
   -0.8759   -1.8783   -1.1442 C   0  0  0  0  0  0  0  0  0  0  0  0
   -4.1610    2.7595    0.6344 C   0  0  0  0  0  0  0  0  0  0  0  0
   -4.6639    2.5245    2.0568 C   0  0  0  0  0  0  0  0  0  0  0  0
   -3.7170    4.2115    0.4788 C   0  0  0  0  0  0  0  0  0  0  0  0
   -4.9255    0.5855   -1.3579 H   0  0  0  0  0  0  0  0  0  0  0  0
   -7.0802   -0.1370   -1.9993 H   0  0  0  0  0  0  0  0  0  0  0  0
   -7.3132   -1.6406   -2.9236 H   0  0  0  0  0  0  0  0  0  0  0  0
   -5.7909   -0.7331   -3.0868 H   0  0  0  0  0  0  0  0  0  0  0  0
   -5.2922   -3.9947    2.5222 H   0  0  0  0  0  0  0  0  0  0  0  0
   -5.6314   -5.2619    1.3188 H   0  0  0  0  0  0  0  0  0  0  0  0
   -3.9718   -4.6440    1.5076 H   0  0  0  0  0  0  0  0  0  0  0  0
   -3.5355   -2.4376    2.2734 H   0  0  0  0  0  0  0  0  0  0  0  0
   -2.5917   -0.2110    2.1264 H   0  0  0  0  0  0  0  0  0  0  0  0
   -3.4309    2.3258   -1.8045 H   0  0  0  0  0  0  0  0  0  0  0  0
   -1.8817    2.8686   -1.1715 H   0  0  0  0  0  0  0  0  0  0  0  0
   -2.5458   -0.0133   -1.9627 H   0  0  0  0  0  0  0  0  0  0  0  0
   -1.6970    1.1719   -2.9592 H   0  0  0  0  0  0  0  0  0  0  0  0
   -1.0733    1.0579    0.8326 H   0  0  0  0  0  0  0  0  0  0  0  0
    0.1535    1.2905   -1.2418 H   0  0  0  0  0  0  0  0  0  0  0  0
    2.6264    0.3196    0.6958 H   0  0  0  0  0  0  0  0  0  0  0  0
    2.8815    2.0122    0.0939 H   0  0  0  0  0  0  0  0  0  0  0  0
    3.2477    1.1094   -2.2410 H   0  0  0  0  0  0  0  0  0  0  0  0
    2.9822   -0.5747   -1.6206 H   0  0  0  0  0  0  0  0  0  0  0  0
    5.0274    2.5912   -1.1656 H   0  0  0  0  0  0  0  0  0  0  0  0
    7.4197    2.3928   -0.7620 H   0  0  0  0  0  0  0  0  0  0  0  0
    9.4373    2.0561    0.5489 H   0  0  0  0  0  0  0  0  0  0  0  0
    9.5299    1.4366   -1.1284 H   0  0  0  0  0  0  0  0  0  0  0  0
   10.5388    0.7128    0.1494 H   0  0  0  0  0  0  0  0  0  0  0  0
    7.0479   -3.6217    1.6232 H   0  0  0  0  0  0  0  0  0  0  0  0
    5.5870   -2.6678    1.9846 H   0  0  0  0  0  0  0  0  0  0  0  0
    5.8300   -3.3559    0.3505 H   0  0  0  0  0  0  0  0  0  0  0  0
    4.4414   -1.4257    0.3200 H   0  0  0  0  0  0  0  0  0  0  0  0
   -0.8645   -2.2406   -2.1747 H   0  0  0  0  0  0  0  0  0  0  0  0
   -1.9156   -1.7683   -0.8220 H   0  0  0  0  0  0  0  0  0  0  0  0
   -0.3821   -2.6192   -0.5152 H   0  0  0  0  0  0  0  0  0  0  0  0
   -5.0003    2.5844   -0.0501 H   0  0  0  0  0  0  0  0  0  0  0  0
   -3.8685    2.7181    2.7704 H   0  0  0  0  0  0  0  0  0  0  0  0
   -5.0162    1.5037    2.1866 H   0  0  0  0  0  0  0  0  0  0  0  0
   -5.4887    3.2000    2.2686 H   0  0  0  0  0  0  0  0  0  0  0  0
   -2.8437    4.4031    1.0943 H   0  0  0  0  0  0  0  0  0  0  0  0
   -3.4894    4.4586   -0.5544 H   0  0  0  0  0  0  0  0  0  0  0  0
   -4.5184    4.8670    0.8093 H   0  0  0  0  0  0  0  0  0  0  0  0
   -0.7750    2.6567    2.5056 H   0  0  0  0  0  0  0  0  0  0  0  0
  1  2  2  0  0  0  0
  2  3  1  0  0  0  0
  3  4  1  0  0  0  0
  4  5  4  0  0  0  0
  5  6  4  0  0  0  0
  6  7  1  0  0  0  0
  7  8  1  0  0  0  0
  6  9  4  0  0  0  0
  9 10  1  0  0  0  0
 10 11  1  0  0  0  0
  9 12  4  0  0  0  0
  4 13  4  0  0  0  0
 12 13  4  0  0  0  0
  3 14  1  0  0  0  0
 14 15  1  0  0  0  0
 15 16  1  0  0  0  0
 16 17  2  0  0  0  0
 18 19  1  0  0  0  0
 18 20  1  0  0  0  0
 19 20  1  0  0  0  0
 20 21  1  0  0  0  0
 21 22  2  0  0  0  0
 22 23  4  0  0  0  0
 23 24  1  0  0  0  0
 24 25  1  0  0  0  0
 23 26  1  0  0  0  0
 26 27  1  0  0  0  0
 27 28  1  0  0  0  0
 20 29  1  0  0  0  0
 26 29  2  0  0  0  0
 17 30  1  0  0  0  0
  3 31  1  0  0  0  0
 31 32  1  0  0  0  0
 31 33  1  0  0  0  0
  5 34  1  0  0  0  0
  8 35  1  0  0  0  0
  8 36  1  0  0  0  0
  8 37  1  0  0  0  0
 11 38  1  0  0  0  0
 11 39  1  0  0  0  0
 11 40  1  0  0  0  0
 12 41  1  0  0  0  0
 13 42  1  0  0  0  0
 14 43  1  0  0  0  0
 14 44  1  0  0  0  0
 15 45  1  0  0  0  0
 15 46  1  0  0  0  0
  2 47  1  0  0  0  0
 16 48  1  0  0  0  0
 18 49  1  0  0  0  0
 18 50  1  0  0  0  0
 19 51  1  0  0  0  0
 19 52  1  0  0  0  0
 21 53  1  0  0  0  0
 22 54  1  0  0  0  0
 25 55  1  0  0  0  0
 25 56  1  0  0  0  0
 25 57  1  0  0  0  0
 28 58  1  0  0  0  0
 28 59  1  0  0  0  0
 28 60  1  0  0  0  0
 29 61  1  0  0  0  0
 30 62  1  0  0  0  0
 30 63  1  0  0  0  0
 30 64  1  0  0  0  0
 31 65  1  0  0  0  0
 32 66  1  0  0  0  0
 32 67  1  0  0  0  0
 32 68  1  0  0  0  0
 33 69  1  0  0  0  0
 33 70  1  0  0  0  0
 33 71  1  0  0  0  0
  1 72  1  0  0  0  0
M  CHG  1   1   1
M  END
