          20
 
C              3.22681024        0.95811806        0.00559880
N              2.12949684        0.03664308       -0.00048060
C              2.19816543       -1.32611573       -0.00488642
N              1.02441950       -1.89440426        0.00083967
C              0.10354803       -0.89689539        0.00994161
C              0.81351045        0.34329187        0.00978607
C              0.09256977        1.59674236       -0.00062605
O              0.61643996        2.69367665       -0.01822766
N             -1.27855895        1.41458457        0.00799313
C             -2.12546235        2.58180665       -0.00618203
C             -1.95744868        0.15329562        0.01511069
O             -3.15997697        0.15180813        0.01803690
N             -1.19589396       -0.96846003        0.01581078
H              3.77209198        0.89088913        0.95014721
H              3.91725133        0.72706444       -0.80726161
H              2.84469437        1.97256400       -0.11288670
H              3.12475791       -1.86899720       -0.01305679
H             -1.49363196        3.46986069        0.01915113
H             -2.74767728        2.58495741       -0.90548485
H             -2.80025464        2.56610393        0.85375766
