 xtb: 6.6.1 (8d0f1dd)
          06052419573D

 25 24  0     0  0            999 V2000
    3.0458    1.6345   -0.1739 C   0  0  0  0  0  0  0  0  0  0  0  0
    2.3737    0.4309   -0.4603 N   0  0  0  0  0  0  0  0  0  0  0  0
    1.7006   -2.6603    1.5455 C   0  0  0  0  0  0  0  0  0  0  0  0
    0.6380   -2.0954    1.1183 N   0  0  0  0  0  0  0  0  0  0  0  0
    0.4379   -1.0371    0.1496 C   0  0  0  0  0  0  0  0  0  0  0  0
    1.3889   -0.1660   -0.1360 C   0  0  0  0  0  0  0  0  0  0  0  0
   -0.7603    2.2040   -0.9578 C   0  0  0  0  0  0  0  0  0  0  0  0
   -0.3943    2.9519   -1.7465 O   0  0  0  0  0  0  0  0  0  0  0  0
   -1.0864    1.2802   -0.1829 N   0  0  0  0  0  0  0  0  0  0  0  0
   -1.4513    1.4558    1.2264 C   0  0  0  0  0  0  0  0  0  0  0  0
   -1.6087   -0.0701   -0.7993 C   0  0  0  0  0  0  0  0  0  0  0  0
   -2.6272   -0.0197   -1.4032 O   0  0  0  0  0  0  0  0  0  0  0  0
   -0.8121   -1.0896   -0.5236 N   0  0  0  0  0  0  0  0  0  0  0  0
   -1.2229   -2.3956   -1.0467 C   0  0  0  0  0  0  0  0  0  0  0  0
    2.5589    2.2449    0.5900 H   0  0  0  0  0  0  0  0  0  0  0  0
    4.0546    1.3732    0.1488 H   0  0  0  0  0  0  0  0  0  0  0  0
    3.1390    2.1946   -1.1053 H   0  0  0  0  0  0  0  0  0  0  0  0
    2.6461   -2.2964    1.1391 H   0  0  0  0  0  0  0  0  0  0  0  0
   -1.1786    2.4523    1.5643 H   0  0  0  0  0  0  0  0  0  0  0  0
   -2.5268    1.3176    1.3392 H   0  0  0  0  0  0  0  0  0  0  0  0
   -0.9201    0.7123    1.8179 H   0  0  0  0  0  0  0  0  0  0  0  0
   -1.7677   -2.9667   -0.2938 H   0  0  0  0  0  0  0  0  0  0  0  0
   -0.3402   -2.9501   -1.3595 H   0  0  0  0  0  0  0  0  0  0  0  0
   -1.8779   -2.2446   -1.9025 H   0  0  0  0  0  0  0  0  0  0  0  0
   -0.2490   -2.4423    1.4832 H   0  0  0  0  0  0  0  0  0  0  0  0
  1  2  1  0  0  0  0
  3  4  2  0  0  0  0
  4  5  1  0  0  0  0
  2  6  2  0  0  0  0
  5  6  2  0  0  0  0
  7  8  2  0  0  0  0
  7  9  2  0  0  0  0
  9 10  1  0  0  0  0
  9 11  1  0  0  0  0
 11 12  2  0  0  0  0
  5 13  1  0  0  0  0
 11 13  4  0  0  0  0
 13 14  1  0  0  0  0
  1 15  1  0  0  0  0
  1 16  1  0  0  0  0
  1 17  1  0  0  0  0
  3 18  1  0  0  0  0
 10 19  1  0  0  0  0
 10 20  1  0  0  0  0
 10 21  1  0  0  0  0
 14 22  1  0  0  0  0
 14 23  1  0  0  0  0
 14 24  1  0  0  0  0
  4 25  1  0  0  0  0
M  CHG  1   1   1
M  END
