          34
 
N             -1.47400860        3.10880876        2.85202963
C             -1.85785070        1.97086228        2.39970437
C             -3.04280652        1.79097281        1.64896960
C             -3.39144964        0.48859898        1.16731699
C             -4.20150403        0.32666221        0.01698293
C             -4.56445762       -0.91870669       -0.45669111
O             -5.31921577       -1.14404693       -1.55529213
C             -5.93297078       -0.05312589       -2.20168704
C             -4.11978015       -2.08948891        0.21921698
O             -4.52523764       -3.25859108       -0.31170361
C             -4.24485797       -4.45932812        0.37018063
C             -3.32380592       -1.93915923        1.35001096
C             -2.96124686       -0.68702595        1.80835480
C             -3.91734839        2.97877561        1.35142049
C             -4.31839073        3.69692367        2.64373321
C             -3.21416969        3.95318450        0.40062434
H             -4.55110935        1.20521166       -0.49900342
H             -6.56816871        0.51362710       -1.51523931
H             -6.54864027       -0.48795241       -2.98622135
H             -5.19359117        0.61641657       -2.65211503
H             -4.65452420       -4.44864069        1.38391736
H             -4.73147687       -5.24228795       -0.20704512
H             -3.16919823       -4.65630745        0.41274994
H             -2.99701430       -2.80882628        1.89737475
H             -2.38672286       -0.62615790        2.71819164
H             -1.23950826        1.07407134        2.54036790
H             -4.84112250        2.63100412        0.88037719
H             -3.43266409        4.08278321        3.13900463
H             -4.83070872        3.01216142        3.31559788
H             -4.98593150        4.52349583        2.41252360
H             -2.31108744        4.33133662        0.87269277
H             -2.94619501        3.46219319       -0.53601853
H             -3.87244060        4.79021733        0.18139178
H             -0.60526483        3.13336584        3.37130426
