 xtb: 6.6.1 (8d0f1dd)
          04062411143D

 72 72  0     0  0            999 V2000
   -1.9134    2.8256    2.2306 N   0  0  0  0  0  0  0  0  0  0  0  0
   -1.8605    2.1360    1.1907 C   0  0  0  0  0  0  0  0  0  0  0  0
   -3.0098    1.9238    0.2446 C   0  0  0  0  0  0  0  0  0  0  0  0
   -3.4827    0.4804    0.3342 C   0  0  0  0  0  0  0  0  0  0  0  0
   -4.4270    0.0061   -0.5787 C   0  0  0  0  0  0  0  0  0  0  0  0
   -4.9013   -1.2934   -0.5212 C   0  0  0  0  0  0  0  0  0  0  0  0
   -5.8219   -1.8239   -1.3526 O   0  0  0  0  0  0  0  0  0  0  0  0
   -6.4527   -0.9947   -2.3000 C   0  0  0  0  0  0  0  0  0  0  0  0
   -4.4057   -2.1756    0.4767 C   0  0  0  0  0  0  0  0  0  0  0  0
   -4.9115   -3.4252    0.4482 O   0  0  0  0  0  0  0  0  0  0  0  0
   -4.5238   -4.3446    1.4419 C   0  0  0  0  0  0  0  0  0  0  0  0
   -3.4707   -1.6984    1.3807 C   0  0  0  0  0  0  0  0  0  0  0  0
   -3.0191   -0.3858    1.3117 C   0  0  0  0  0  0  0  0  0  0  0  0
   -2.4549    2.2089   -1.1760 C   0  0  0  0  0  0  0  0  0  0  0  0
   -1.5318    1.1099   -1.7347 C   0  0  0  0  0  0  0  0  0  0  0  0
   -0.1959    1.0806   -1.0993 C   0  0  0  0  0  0  0  0  0  0  0  0
    0.4491   -0.0139   -0.7045 N   0  0  0  0  0  0  0  0  0  0  0  0
    1.8262    0.0622   -0.2790 C   0  0  0  0  0  0  0  0  0  0  0  0
    2.7996   -0.4100   -1.3779 C   0  0  0  0  0  0  0  0  0  0  0  0
    4.2171   -0.1998   -0.9269 C   0  0  0  0  0  0  0  0  0  0  0  0
    4.8410    1.0254   -1.1295 C   0  0  0  0  0  0  0  0  0  0  0  0
    6.1317    1.2440   -0.6898 C   0  0  0  0  0  0  0  0  0  0  0  0
    6.8274    0.2325   -0.0301 C   0  0  0  0  0  0  0  0  0  0  0  0
    8.0966    0.3244    0.4334 O   0  0  0  0  0  0  0  0  0  0  0  0
    8.8163    1.4105    0.4673 C   0  0  0  0  0  0  0  0  0  0  0  0
    6.2050   -1.0290    0.1776 C   0  0  0  0  0  0  0  0  0  0  0  0
    6.9571   -1.9423    0.8166 O   0  0  0  0  0  0  0  0  0  0  0  0
    6.4332   -3.2294    1.0547 C   0  0  0  0  0  0  0  0  0  0  0  0
    4.9054   -1.2167   -0.2696 C   0  0  0  0  0  0  0  0  0  0  0  0
   -0.1660   -1.3191   -0.7390 C   0  0  0  0  0  0  0  0  0  0  0  0
   -4.2234    2.8565    0.5355 C   0  0  0  0  0  0  0  0  0  0  0  0
   -4.8679    2.5330    1.8813 C   0  0  0  0  0  0  0  0  0  0  0  0
   -3.8680    4.3395    0.4766 C   0  0  0  0  0  0  0  0  0  0  0  0
   -4.8079    0.6697   -1.3369 H   0  0  0  0  0  0  0  0  0  0  0  0
   -6.9618   -0.1534   -1.8200 H   0  0  0  0  0  0  0  0  0  0  0  0
   -7.1884   -1.6251   -2.7954 H   0  0  0  0  0  0  0  0  0  0  0  0
   -5.7423   -0.6184   -3.0433 H   0  0  0  0  0  0  0  0  0  0  0  0
   -4.7772   -3.9843    2.4433 H   0  0  0  0  0  0  0  0  0  0  0  0
   -5.0848   -5.2534    1.2331 H   0  0  0  0  0  0  0  0  0  0  0  0
   -3.4518   -4.5616    1.3917 H   0  0  0  0  0  0  0  0  0  0  0  0
   -3.0925   -2.3385    2.1613 H   0  0  0  0  0  0  0  0  0  0  0  0
   -2.3157   -0.0423    2.0545 H   0  0  0  0  0  0  0  0  0  0  0  0
   -3.2932    2.3252   -1.8619 H   0  0  0  0  0  0  0  0  0  0  0  0
   -1.9112    3.1542   -1.1578 H   0  0  0  0  0  0  0  0  0  0  0  0
   -2.0307    0.1447   -1.6695 H   0  0  0  0  0  0  0  0  0  0  0  0
   -1.3834    1.3374   -2.7985 H   0  0  0  0  0  0  0  0  0  0  0  0
   -0.9403    1.6352    0.8297 H   0  0  0  0  0  0  0  0  0  0  0  0
    0.3660    2.0030   -1.0813 H   0  0  0  0  0  0  0  0  0  0  0  0
    1.9605   -0.5550    0.6137 H   0  0  0  0  0  0  0  0  0  0  0  0
    2.0659    1.0953   -0.0190 H   0  0  0  0  0  0  0  0  0  0  0  0
    2.6109    0.1680   -2.2841 H   0  0  0  0  0  0  0  0  0  0  0  0
    2.6231   -1.4634   -1.5971 H   0  0  0  0  0  0  0  0  0  0  0  0
    4.3214    1.8146   -1.6506 H   0  0  0  0  0  0  0  0  0  0  0  0
    6.5999    2.1959   -0.8794 H   0  0  0  0  0  0  0  0  0  0  0  0
    8.4675    2.3703    0.1275 H   0  0  0  0  0  0  0  0  0  0  0  0
   11.1504    2.9337   -0.6418 H   0  0  0  0  0  0  0  0  0  0  0  0
    9.8139    1.2827    0.8427 H   0  0  0  0  0  0  0  0  0  0  0  0
    7.2270   -3.7763    1.5595 H   0  0  0  0  0  0  0  0  0  0  0  0
    5.5531   -3.1890    1.7034 H   0  0  0  0  0  0  0  0  0  0  0  0
    6.1808   -3.7379    0.1200 H   0  0  0  0  0  0  0  0  0  0  0  0
    4.4210   -2.1686   -0.1221 H   0  0  0  0  0  0  0  0  0  0  0  0
   -0.3221   -1.6562   -1.7662 H   0  0  0  0  0  0  0  0  0  0  0  0
   -1.1304   -1.3002   -0.2251 H   0  0  0  0  0  0  0  0  0  0  0  0
    0.4800   -2.0331   -0.2345 H   0  0  0  0  0  0  0  0  0  0  0  0
   -4.9633    2.6563   -0.2478 H   0  0  0  0  0  0  0  0  0  0  0  0
   -4.1698    2.7361    2.6868 H   0  0  0  0  0  0  0  0  0  0  0  0
   -5.1717    1.4901    1.9315 H   0  0  0  0  0  0  0  0  0  0  0  0
   -5.7493    3.1533    2.0210 H   0  0  0  0  0  0  0  0  0  0  0  0
   -3.1139    4.5776    1.2204 H   0  0  0  0  0  0  0  0  0  0  0  0
   -3.5086    4.6325   -0.5064 H   0  0  0  0  0  0  0  0  0  0  0  0
   -4.7559    4.9272    0.6945 H   0  0  0  0  0  0  0  0  0  0  0  0
   -1.0660    2.9200    2.7817 H   0  0  0  0  0  0  0  0  0  0  0  0
  1  2  2  0  0  0  0
  2  3  1  0  0  0  0
  3  4  1  0  0  0  0
  4  5  4  0  0  0  0
  5  6  4  0  0  0  0
  6  7  1  0  0  0  0
  7  8  1  0  0  0  0
  6  9  4  0  0  0  0
  9 10  1  0  0  0  0
 10 11  1  0  0  0  0
  9 12  4  0  0  0  0
  4 13  4  0  0  0  0
 12 13  4  0  0  0  0
  3 14  1  0  0  0  0
 14 15  1  0  0  0  0
 15 16  1  0  0  0  0
 16 17  4  0  0  0  0
 17 18  1  0  0  0  0
 18 19  1  0  0  0  0
 19 20  1  0  0  0  0
 20 21  4  0  0  0  0
 21 22  4  0  0  0  0
 22 23  4  0  0  0  0
 23 24  1  0  0  0  0
 24 25  4  0  0  0  0
 23 26  4  0  0  0  0
 26 27  1  0  0  0  0
 27 28  1  0  0  0  0
 20 29  4  0  0  0  0
 26 29  4  0  0  0  0
 17 30  1  0  0  0  0
  3 31  1  0  0  0  0
 31 32  1  0  0  0  0
 31 33  1  0  0  0  0
  5 34  1  0  0  0  0
  8 35  1  0  0  0  0
  8 36  1  0  0  0  0
  8 37  1  0  0  0  0
 11 38  1  0  0  0  0
 11 39  1  0  0  0  0
 11 40  1  0  0  0  0
 12 41  1  0  0  0  0
 13 42  1  0  0  0  0
 14 43  1  0  0  0  0
 14 44  1  0  0  0  0
 15 45  1  0  0  0  0
 15 46  1  0  0  0  0
  2 47  1  0  0  0  0
 16 48  1  0  0  0  0
 18 49  1  0  0  0  0
 18 50  1  0  0  0  0
 19 51  1  0  0  0  0
 19 52  1  0  0  0  0
 21 53  1  0  0  0  0
 22 54  1  0  0  0  0
 25 55  1  0  0  0  0
 25 57  1  0  0  0  0
 28 58  1  0  0  0  0
 28 59  1  0  0  0  0
 28 60  1  0  0  0  0
 29 61  1  0  0  0  0
 30 62  1  0  0  0  0
 30 63  1  0  0  0  0
 30 64  1  0  0  0  0
 31 65  1  0  0  0  0
 32 66  1  0  0  0  0
 32 67  1  0  0  0  0
 32 68  1  0  0  0  0
 33 69  1  0  0  0  0
 33 70  1  0  0  0  0
 33 71  1  0  0  0  0
  1 72  1  0  0  0  0
M  CHG  1   1   1
M  END
