          21
 
C              3.35230853        1.42961145       -0.04569609
N              2.47356981        0.29031280       -0.00100566
C              2.82468534       -0.98830763        0.03046406
N              1.73330788       -1.77218920        0.05566996
C              0.62386764       -0.96510226        0.03853882
C              1.10790059        0.34975823        0.00341029
C              0.17929724        1.45982137       -0.00812220
O              0.48872036        2.63455562       -0.02723435
N             -1.13192642        1.01729339        0.00743510
C             -2.18359538        2.01371348       -0.00186490
C             -1.56392548       -0.33100630        0.03327542
O             -2.75448431       -0.55966737        0.03765858
N             -0.63590972       -1.32007655        0.05132210
H              4.05124390        1.40368701        0.79017068
H              3.91900581        1.43460456       -0.97751612
H              2.74945977        2.33608188        0.01045909
H              3.83616451       -1.34801492        0.03635894
H             -1.72231132        2.99857332       -0.04669841
H             -2.83335753        1.85670733       -0.86405220
H             -2.79108293        1.92051860        0.89982690
H              1.71713726       -2.78206242        0.08292197
