 xtb: 6.6.1 (8d0f1dd)
          04062411143D

 72 72  0     0  0            999 V2000
   -1.4380    2.6047    1.8990 N   0  0  0  0  0  0  0  0  0  0  0  0
   -1.6472    1.8142    0.9543 C   0  0  0  0  0  0  0  0  0  0  0  0
   -2.9366    1.7109    0.1884 C   0  0  0  0  0  0  0  0  0  0  0  0
   -3.5036    0.3095    0.3588 C   0  0  0  0  0  0  0  0  0  0  0  0
   -4.5309   -0.1401   -0.4727 C   0  0  0  0  0  0  0  0  0  0  0  0
   -5.1122   -1.3848   -0.2951 C   0  0  0  0  0  0  0  0  0  0  0  0
   -6.1060   -1.8972   -1.0510 O   0  0  0  0  0  0  0  0  0  0  0  0
   -6.6660   -1.1148   -2.0790 C   0  0  0  0  0  0  0  0  0  0  0  0
   -4.6630   -2.2238    0.7600 C   0  0  0  0  0  0  0  0  0  0  0  0
   -5.3020   -3.4055    0.8754 O   0  0  0  0  0  0  0  0  0  0  0  0
   -5.0003   -4.2415    1.9681 C   0  0  0  0  0  0  0  0  0  0  0  0
   -3.6368   -1.7749    1.5755 C   0  0  0  0  0  0  0  0  0  0  0  0
   -3.0660   -0.5254    1.3753 C   0  0  0  0  0  0  0  0  0  0  0  0
   -2.5773    1.9835   -1.2956 C   0  0  0  0  0  0  0  0  0  0  0  0
   -1.7955    0.8530   -1.9896 C   0  0  0  0  0  0  0  0  0  0  0  0
   -0.3947    0.7604   -1.5257 C   0  0  0  0  0  0  0  0  0  0  0  0
    0.2618   -0.3730   -1.2774 N   0  0  0  0  0  0  0  0  0  0  0  0
    1.6034   -0.3338   -0.7511 C   0  0  0  0  0  0  0  0  0  0  0  0
    2.6800   -0.6290   -1.8121 C   0  0  0  0  0  0  0  0  0  0  0  0
    3.9775   -0.5578   -1.1785 C   0  0  0  0  0  0  0  0  0  0  0  0
    6.6499    1.7721   -1.9694 C   0  0  0  0  0  0  0  0  0  0  0  0
    7.4373    1.4793   -0.9293 C   0  0  0  0  0  0  0  0  0  0  0  0
    7.1706    0.5903    0.1714 C   0  0  0  0  0  0  0  0  0  0  0  0
    8.0033    0.5256    1.2392 O   0  0  0  0  0  0  0  0  0  0  0  0
    9.0004    1.4971    1.4380 C   0  0  0  0  0  0  0  0  0  0  0  0
    6.1230   -0.3122    0.2525 C   0  0  0  0  0  0  0  0  0  0  0  0
    6.0735   -1.0711    1.3863 O   0  0  0  0  0  0  0  0  0  0  0  0
    5.6768   -2.4218    1.2808 C   0  0  0  0  0  0  0  0  0  0  0  0
    5.0443   -0.3902   -0.6371 C   0  0  0  0  0  0  0  0  0  0  0  0
   -0.3792   -1.6613   -1.3837 C   0  0  0  0  0  0  0  0  0  0  0  0
   -4.0210    2.7243    0.6626 C   0  0  0  0  0  0  0  0  0  0  0  0
   -4.4431    2.4554    2.1050 C   0  0  0  0  0  0  0  0  0  0  0  0
   -3.5876    4.1814    0.5201 C   0  0  0  0  0  0  0  0  0  0  0  0
   -4.8963    0.5016   -1.2572 H   0  0  0  0  0  0  0  0  0  0  0  0
   -7.1001   -0.1890   -1.6888 H   0  0  0  0  0  0  0  0  0  0  0  0
   -7.4548   -1.7258   -2.5137 H   0  0  0  0  0  0  0  0  0  0  0  0
   -5.9274   -0.8772   -2.8520 H   0  0  0  0  0  0  0  0  0  0  0  0
   -5.1773   -3.7335    2.9209 H   0  0  0  0  0  0  0  0  0  0  0  0
   -5.6749   -5.0909    1.8813 H   0  0  0  0  0  0  0  0  0  0  0  0
   -3.9655   -4.5966    1.9302 H   0  0  0  0  0  0  0  0  0  0  0  0
   -3.2813   -2.3855    2.3896 H   0  0  0  0  0  0  0  0  0  0  0  0
   -2.2929   -0.1972    2.0526 H   0  0  0  0  0  0  0  0  0  0  0  0
   -3.4999    2.1483   -1.8515 H   0  0  0  0  0  0  0  0  0  0  0  0
   -1.9941    2.9033   -1.3498 H   0  0  0  0  0  0  0  0  0  0  0  0
   -2.3225   -0.0907   -1.8579 H   0  0  0  0  0  0  0  0  0  0  0  0
   -1.7885    1.0856   -3.0622 H   0  0  0  0  0  0  0  0  0  0  0  0
   -0.8800    1.1280    0.5486 H   0  0  0  0  0  0  0  0  0  0  0  0
    0.1807    1.6722   -1.4795 H   0  0  0  0  0  0  0  0  0  0  0  0
    1.6890   -1.0672    0.0565 H   0  0  0  0  0  0  0  0  0  0  0  0
    1.7955    0.6551   -0.3288 H   0  0  0  0  0  0  0  0  0  0  0  0
    2.6111    0.1029   -2.6224 H   0  0  0  0  0  0  0  0  0  0  0  0
    2.5328   -1.6246   -2.2394 H   0  0  0  0  0  0  0  0  0  0  0  0
    7.0097    2.4337   -2.7408 H   0  0  0  0  0  0  0  0  0  0  0  0
    8.4172    1.9358   -0.9007 H   0  0  0  0  0  0  0  0  0  0  0  0
    8.6195    2.5114    1.2905 H   0  0  0  0  0  0  0  0  0  0  0  0
    9.8665    1.3263    0.7886 H   0  0  0  0  0  0  0  0  0  0  0  0
    9.3128    1.3806    2.4759 H   0  0  0  0  0  0  0  0  0  0  0  0
    5.2173   -2.6955    2.2306 H   0  0  0  0  0  0  0  0  0  0  0  0
    4.9665   -2.5766    0.4643 H   0  0  0  0  0  0  0  0  0  0  0  0
    6.5577   -3.0490    1.1158 H   0  0  0  0  0  0  0  0  0  0  0  0
    5.6562    1.3834   -2.0835 H   0  0  0  0  0  0  0  0  0  0  0  0
   -0.7486   -1.8294   -2.3945 H   0  0  0  0  0  0  0  0  0  0  0  0
   -1.2193   -1.7366   -0.6869 H   0  0  0  0  0  0  0  0  0  0  0  0
    0.3382   -2.4402   -1.1434 H   0  0  0  0  0  0  0  0  0  0  0  0
   -4.8951    2.5630    0.0209 H   0  0  0  0  0  0  0  0  0  0  0  0
   -3.6001    2.6000    2.7730 H   0  0  0  0  0  0  0  0  0  0  0  0
   -4.8205    1.4424    2.2236 H   0  0  0  0  0  0  0  0  0  0  0  0
   -5.2306    3.1479    2.3892 H   0  0  0  0  0  0  0  0  0  0  0  0
   -2.6947    4.3660    1.1089 H   0  0  0  0  0  0  0  0  0  0  0  0
   -3.3990    4.4516   -0.5153 H   0  0  0  0  0  0  0  0  0  0  0  0
   -4.3794    4.8260    0.8919 H   0  0  0  0  0  0  0  0  0  0  0  0
   -0.5160    2.6010    2.3235 H   0  0  0  0  0  0  0  0  0  0  0  0
  1  2  2  0  0  0  0
  2  3  1  0  0  0  0
  3  4  1  0  0  0  0
  4  5  4  0  0  0  0
  5  6  4  0  0  0  0
  6  7  1  0  0  0  0
  7  8  1  0  0  0  0
  6  9  4  0  0  0  0
  9 10  1  0  0  0  0
 10 11  1  0  0  0  0
  9 12  4  0  0  0  0
  4 13  4  0  0  0  0
 12 13  4  0  0  0  0
  3 14  1  0  0  0  0
 14 15  1  0  0  0  0
 15 16  1  0  0  0  0
 16 17  4  0  0  0  0
 17 18  1  0  0  0  0
 18 19  1  0  0  0  0
 19 20  1  0  0  0  0
 21 22  2  0  0  0  0
 22 23  1  0  0  0  0
 23 24  1  0  0  0  0
 24 25  1  0  0  0  0
 23 26  4  0  0  0  0
 26 27  1  0  0  0  0
 27 28  1  0  0  0  0
 20 29  3  0  0  0  0
 26 29  1  0  0  0  0
 17 30  1  0  0  0  0
  3 31  1  0  0  0  0
 31 32  1  0  0  0  0
 31 33  1  0  0  0  0
  5 34  1  0  0  0  0
  8 35  1  0  0  0  0
  8 36  1  0  0  0  0
  8 37  1  0  0  0  0
 11 38  1  0  0  0  0
 11 39  1  0  0  0  0
 11 40  1  0  0  0  0
 12 41  1  0  0  0  0
 13 42  1  0  0  0  0
 14 43  1  0  0  0  0
 14 44  1  0  0  0  0
 15 45  1  0  0  0  0
 15 46  1  0  0  0  0
  2 47  1  0  0  0  0
 16 48  1  0  0  0  0
 18 49  1  0  0  0  0
 18 50  1  0  0  0  0
 19 51  1  0  0  0  0
 19 52  1  0  0  0  0
 21 53  1  0  0  0  0
 22 54  1  0  0  0  0
 25 55  1  0  0  0  0
 25 56  1  0  0  0  0
 25 57  1  0  0  0  0
 28 58  1  0  0  0  0
 28 59  1  0  0  0  0
 28 60  1  0  0  0  0
 21 61  1  0  0  0  0
 30 62  1  0  0  0  0
 30 63  1  0  0  0  0
 30 64  1  0  0  0  0
 31 65  1  0  0  0  0
 32 66  1  0  0  0  0
 32 67  1  0  0  0  0
 32 68  1  0  0  0  0
 33 69  1  0  0  0  0
 33 70  1  0  0  0  0
 33 71  1  0  0  0  0
  1 72  1  0  0  0  0
M  CHG  1   1   1
M  END
