 xtb: 6.6.1 (8d0f1dd)
          04062411143D

 72 72  0     0  0            999 V2000
   -3.2932    3.1328    3.0893 N   0  0  0  0  0  0  0  0  0  0  0  0
   -3.1785    1.9993    2.5666 C   0  0  0  0  0  0  0  0  0  0  0  0
   -3.4499    1.7373    1.0973 C   0  0  0  0  0  0  0  0  0  0  0  0
   -4.0919    0.3816    0.8904 C   0  0  0  0  0  0  0  0  0  0  0  0
   -4.0390   -0.2068   -0.3740 C   0  0  0  0  0  0  0  0  0  0  0  0
   -4.6716   -1.4115   -0.6326 C   0  0  0  0  0  0  0  0  0  0  0  0
   -4.6888   -2.0442   -1.8250 O   0  0  0  0  0  0  0  0  0  0  0  0
   -4.1439   -1.4046   -2.9535 C   0  0  0  0  0  0  0  0  0  0  0  0
   -5.3793   -2.0699    0.4125 C   0  0  0  0  0  0  0  0  0  0  0  0
   -5.9537   -3.2406    0.0775 O   0  0  0  0  0  0  0  0  0  0  0  0
   -6.7213   -3.9274    1.0392 C   0  0  0  0  0  0  0  0  0  0  0  0
   -5.4359   -1.4686    1.6612 C   0  0  0  0  0  0  0  0  0  0  0  0
   -4.8075   -0.2542    1.8937 C   0  0  0  0  0  0  0  0  0  0  0  0
   -2.0195    1.7833    0.6557 C   0  0  0  0  0  0  0  0  0  0  0  0
   -1.1832    0.7009    0.6230 C   0  0  0  0  0  0  0  0  0  0  0  0
    0.1873    0.8371    0.3994 C   0  0  0  0  0  0  0  0  0  0  0  0
    1.0724   -0.1583    0.3440 N   0  0  0  0  0  0  0  0  0  0  0  0
    2.4850    0.1098    0.2356 C   0  0  0  0  0  0  0  0  0  0  0  0
    3.0194   -0.0508   -1.2015 C   0  0  0  0  0  0  0  0  0  0  0  0
    4.5129    0.1131   -1.1905 C   0  0  0  0  0  0  0  0  0  0  0  0
    5.1055    1.3299   -1.4871 C   0  0  0  0  0  0  0  0  0  0  0  0
    6.4812    1.4868   -1.4117 C   0  0  0  0  0  0  0  0  0  0  0  0
    7.2944    0.4296   -1.0272 C   0  0  0  0  0  0  0  0  0  0  0  0
    8.6322    0.4708   -0.9030 O   0  0  0  0  0  0  0  0  0  0  0  0
    9.3123    1.6784   -1.1570 C   0  0  0  0  0  0  0  0  0  0  0  0
    6.6955   -0.8271   -0.7290 C   0  0  0  0  0  0  0  0  0  0  0  0
    7.5545   -1.8018   -0.3725 O   0  0  0  0  0  0  0  0  0  0  0  0
    7.0560   -3.0826   -0.0684 C   0  0  0  0  0  0  0  0  0  0  0  0
    5.3189   -0.9595   -0.8140 C   0  0  0  0  0  0  0  0  0  0  0  0
    0.6528   -1.5381    0.3876 C   0  0  0  0  0  0  0  0  0  0  0  0
   -4.3518    2.8037    0.4083 C   0  0  0  0  0  0  0  0  0  0  0  0
   -5.6996    2.8964    1.1190 C   0  0  0  0  0  0  0  0  0  0  0  0
   -3.7256    4.1922    0.3143 C   0  0  0  0  0  0  0  0  0  0  0  0
   -3.4986    0.2969   -1.1609 H   0  0  0  0  0  0  0  0  0  0  0  0
   -4.6223   -0.4390   -3.1386 H   0  0  0  0  0  0  0  0  0  0  0  0
   -4.3441   -2.0719   -3.7903 H   0  0  0  0  0  0  0  0  0  0  0  0
   -3.0626   -1.2610   -2.8545 H   0  0  0  0  0  0  0  0  0  0  0  0
   -7.5627   -3.3210    1.3863 H   0  0  0  0  0  0  0  0  0  0  0  0
   -7.0998   -4.8134    0.5327 H   0  0  0  0  0  0  0  0  0  0  0  0
   -6.1123   -4.2314    1.8955 H   0  0  0  0  0  0  0  0  0  0  0  0
   -5.9842   -1.9333    2.4643 H   0  0  0  0  0  0  0  0  0  0  0  0
   -4.8988    0.1976    2.8691 H   0  0  0  0  0  0  0  0  0  0  0  0
   -1.6053    2.7658    0.4949 H   0  0  0  0  0  0  0  0  0  0  0  0
   -0.9979    0.7773   -2.9196 H   0  0  0  0  0  0  0  0  0  0  0  0
   -1.5958   -0.2833    0.7897 H   0  0  0  0  0  0  0  0  0  0  0  0
   -0.9313    0.8435   -2.1448 H   0  0  0  0  0  0  0  0  0  0  0  0
   -2.7911    1.1139    3.0882 H   0  0  0  0  0  0  0  0  0  0  0  0
    0.5938    1.8332    0.2905 H   0  0  0  0  0  0  0  0  0  0  0  0
    3.0223   -0.5780    0.8959 H   0  0  0  0  0  0  0  0  0  0  0  0
    2.6861    1.1275    0.5760 H   0  0  0  0  0  0  0  0  0  0  0  0
    2.5576    0.7013   -1.8427 H   0  0  0  0  0  0  0  0  0  0  0  0
    2.7528   -1.0380   -1.5825 H   0  0  0  0  0  0  0  0  0  0  0  0
    4.4959    2.1682   -1.7873 H   0  0  0  0  0  0  0  0  0  0  0  0
    6.9136    2.4436   -1.6548 H   0  0  0  0  0  0  0  0  0  0  0  0
    8.9696    2.4782   -0.4939 H   0  0  0  0  0  0  0  0  0  0  0  0
    9.1952    1.9916   -2.1981 H   0  0  0  0  0  0  0  0  0  0  0  0
   10.3611    1.4693   -0.9584 H   0  0  0  0  0  0  0  0  0  0  0  0
    7.9283   -3.6845    0.1795 H   0  0  0  0  0  0  0  0  0  0  0  0
    6.3793   -3.0561    0.7923 H   0  0  0  0  0  0  0  0  0  0  0  0
    6.5413   -3.5268   -0.9263 H   0  0  0  0  0  0  0  0  0  0  0  0
    4.8562   -1.9093   -0.5954 H   0  0  0  0  0  0  0  0  0  0  0  0
   -0.1067   -1.7354   -0.3714 H   0  0  0  0  0  0  0  0  0  0  0  0
    0.2367   -1.7867    1.3676 H   0  0  0  0  0  0  0  0  0  0  0  0
    1.5066   -2.1836    0.2033 H   0  0  0  0  0  0  0  0  0  0  0  0
   -4.5271    2.4360   -0.6099 H   0  0  0  0  0  0  0  0  0  0  0  0
   -5.5672    3.3096    2.1149 H   0  0  0  0  0  0  0  0  0  0  0  0
   -6.1713    1.9201    1.1997 H   0  0  0  0  0  0  0  0  0  0  0  0
   -6.3651    3.5503    0.5619 H   0  0  0  0  0  0  0  0  0  0  0  0
   -3.3926    4.5194    1.2949 H   0  0  0  0  0  0  0  0  0  0  0  0
   -2.8926    4.2161   -0.3842 H   0  0  0  0  0  0  0  0  0  0  0  0
   -4.4745    4.8930   -0.0456 H   0  0  0  0  0  0  0  0  0  0  0  0
   -3.0321    3.2273    4.0656 H   0  0  0  0  0  0  0  0  0  0  0  0
  1  2  2  0  0  0  0
  2  3  1  0  0  0  0
  3  4  1  0  0  0  0
  4  5  4  0  0  0  0
  5  6  4  0  0  0  0
  6  7  1  0  0  0  0
  7  8  1  0  0  0  0
  6  9  4  0  0  0  0
  9 10  1  0  0  0  0
 10 11  1  0  0  0  0
  9 12  4  0  0  0  0
  4 13  4  0  0  0  0
 12 13  4  0  0  0  0
  3 14  1  0  0  0  0
 14 15  2  0  0  0  0
 15 16  4  0  0  0  0
 16 17  4  0  0  0  0
 17 18  1  0  0  0  0
 18 19  1  0  0  0  0
 19 20  1  0  0  0  0
 20 21  4  0  0  0  0
 21 22  4  0  0  0  0
 22 23  4  0  0  0  0
 23 24  1  0  0  0  0
 24 25  1  0  0  0  0
 23 26  4  0  0  0  0
 26 27  1  0  0  0  0
 27 28  1  0  0  0  0
 20 29  4  0  0  0  0
 26 29  4  0  0  0  0
 17 30  1  0  0  0  0
  3 31  1  0  0  0  0
 31 32  1  0  0  0  0
 31 33  1  0  0  0  0
  5 34  1  0  0  0  0
  8 35  1  0  0  0  0
  8 36  1  0  0  0  0
  8 37  1  0  0  0  0
 11 38  1  0  0  0  0
 11 39  1  0  0  0  0
 11 40  1  0  0  0  0
 12 41  1  0  0  0  0
 13 42  1  0  0  0  0
 14 43  1  0  0  0  0
 15 45  1  0  0  0  0
 44 46  1  0  0  0  0
  2 47  1  0  0  0  0
 16 48  1  0  0  0  0
 18 49  1  0  0  0  0
 18 50  1  0  0  0  0
 19 51  1  0  0  0  0
 19 52  1  0  0  0  0
 21 53  1  0  0  0  0
 22 54  1  0  0  0  0
 25 55  1  0  0  0  0
 25 56  1  0  0  0  0
 25 57  1  0  0  0  0
 28 58  1  0  0  0  0
 28 59  1  0  0  0  0
 28 60  1  0  0  0  0
 29 61  1  0  0  0  0
 30 62  1  0  0  0  0
 30 63  1  0  0  0  0
 30 64  1  0  0  0  0
 31 65  1  0  0  0  0
 32 66  1  0  0  0  0
 32 67  1  0  0  0  0
 32 68  1  0  0  0  0
 33 69  1  0  0  0  0
 33 70  1  0  0  0  0
 33 71  1  0  0  0  0
  1 72  1  0  0  0  0
M  CHG  1   1   1
M  END
