          21
 
C              3.39654988        1.58096565       -0.00131167
N              2.57650967        0.39717254        0.00031394
C              2.99593647       -0.86163944        0.00186880
N              1.94832294       -1.70288201        0.00172327
C              0.79713208       -0.95596051       -0.00042825
C              1.20992651        0.38405277       -0.00143281
C              0.22021088        1.44054199        0.00059765
O              0.46535833        2.63101475        0.00721088
N             -1.06386486        0.92753443       -0.00614486
C             -2.16713819        1.86669886       -0.00419570
C             -1.42807549       -0.44849464       -0.00091381
O             -2.60199371       -0.74170991        0.00258722
N             -0.43995201       -1.37809991       -0.00052812
H              4.02114080        1.61071614        0.89178665
H              4.04040087        1.59488859       -0.88104159
H              2.74511961        2.45497721       -0.01507580
H              4.02542183       -1.16608462        0.00332427
H             -1.75781377        2.87519906       -0.00360092
H             -2.78838249        1.70875641       -0.88695175
H             -2.78659430        1.70726830        0.87944978
H              1.98101964       -2.71310279        0.00223047
