 xtb: 6.6.1 (8d0f1dd)
          06052419573D

 25 25  0     0  0            999 V2000
    3.8001    0.8296   -0.1049 C   0  0  0  0  0  0  0  0  0  0  0  0
    4.1125   -0.5509   -0.0598 N   0  0  0  0  0  0  0  0  0  0  0  0
    3.3612   -1.5345   -0.1162 C   0  0  0  0  0  0  0  0  0  0  0  0
    1.9454   -1.5610   -0.2211 N   0  0  0  0  0  0  0  0  0  0  0  0
    1.1485   -0.5778    0.0686 C   0  0  0  0  0  0  0  0  0  0  0  0
    0.3886    0.3082    0.4248 C   0  0  0  0  0  0  0  0  0  0  0  0
   -0.4552    1.3872    0.6399 C   0  0  0  0  0  0  0  0  0  0  0  0
   -0.3046    2.4424    1.1586 O   0  0  0  0  0  0  0  0  0  0  0  0
   -1.8293    1.1046    0.0253 N   0  0  0  0  0  0  0  0  0  0  0  0
   -2.7622    2.2126   -0.0505 C   0  0  0  0  0  0  0  0  0  0  0  0
   -2.0945   -0.0479   -0.4358 C   0  0  0  0  0  0  0  0  0  0  0  0
   -2.9707   -0.7021   -1.1411 O   0  0  0  0  0  0  0  0  0  0  0  0
   -1.6491   -1.2945   -0.6786 N   0  0  0  0  0  0  0  0  0  0  0  0
   -1.7716   -2.3808    0.2579 C   0  0  0  0  0  0  0  0  0  0  0  0
    3.7074    1.2110    0.9132 H   0  0  0  0  0  0  0  0  0  0  0  0
    4.6456    1.3337   -0.5740 H   0  0  0  0  0  0  0  0  0  0  0  0
    2.8815    1.0568   -0.6544 H   0  0  0  0  0  0  0  0  0  0  0  0
    3.7905   -2.5275   -0.1083 H   0  0  0  0  0  0  0  0  0  0  0  0
   -2.1920    3.1297   -0.2008 H   0  0  0  0  0  0  0  0  0  0  0  0
   -3.4665    2.0590   -0.8658 H   0  0  0  0  0  0  0  0  0  0  0  0
   -3.3018    2.2990    0.8950 H   0  0  0  0  0  0  0  0  0  0  0  0
   -0.9387   -2.3119    0.9585 H   0  0  0  0  0  0  0  0  0  0  0  0
   -1.7133   -3.3103   -0.3066 H   0  0  0  0  0  0  0  0  0  0  0  0
   -2.7109   -2.3505    0.8163 H   0  0  0  0  0  0  0  0  0  0  0  0
    1.5396   -2.4060   -0.6086 H   0  0  0  0  0  0  0  0  0  0  0  0
  1  2  1  0  0  0  0
  2  3  2  0  0  0  0
  3  4  1  0  0  0  0
  4  5  4  0  0  0  0
  5  6  3  0  0  0  0
  6  7  1  0  0  0  0
  7  8  2  0  0  0  0
  7  9  1  0  0  0  0
  9 10  1  0  0  0  0
  9 11  2  0  0  0  0
 11 12  1  0  0  0  0
 11 13  1  0  0  0  0
 12 13  1  0  0  0  0
 13 14  1  0  0  0  0
  1 15  1  0  0  0  0
  1 16  1  0  0  0  0
  1 17  1  0  0  0  0
  3 18  1  0  0  0  0
 10 19  1  0  0  0  0
 10 20  1  0  0  0  0
 10 21  1  0  0  0  0
 14 22  1  0  0  0  0
 14 23  1  0  0  0  0
 14 24  1  0  0  0  0
  4 25  1  0  0  0  0
M  CHG  1   1   1
M  END
