          68
 
N             -1.70016958        2.91171553        2.56210339
C             -1.68867872        2.19660472        1.53893524
C             -2.85286526        2.01371789        0.60579012
C             -3.30202315        0.56239564        0.63320299
C             -4.17667435        0.06985770       -0.33718886
C             -4.61866020       -1.23312204       -0.30475040
C             -4.20885660       -2.10092781        0.71468680
O             -4.70423026       -3.35477096        0.66641334
C             -4.41440859       -4.24840711        1.71689348
C             -3.33596329       -1.61935779        1.68891162
C             -2.89744371       -0.30591899        1.64039656
C             -2.32466322        2.39133552       -0.80299702
C             -1.41913171        1.33085898       -1.45570277
C             -0.08892168        1.20277061       -0.82287315
N              0.50672527        0.06092574       -0.50832418
C              1.90298062        0.04364772       -0.13883214
C              2.79494514       -0.34029830       -1.33559378
C              4.24613026       -0.24516825       -0.95649821
C              4.92615149        0.95652651       -1.07416090
C              6.26055907        1.05625224       -0.71293897
C              6.94310525       -0.04759028       -0.22183499
O              8.23487107       -0.06981668        0.15303003
C              9.00560920        1.10433113        0.03834117
C              6.25250610       -1.28494989       -0.09358142
O              6.99196617       -2.30498995        0.38383370
C              6.41273613       -3.58252434        0.50167266
C              4.91693444       -1.35889597       -0.45731122
C             -0.16315479       -1.21225582       -0.62841000
C             -4.08198203        2.90152625        0.96292796
C             -4.65635563        2.54045007        2.33067416
C             -3.77620338        4.39591708        0.91048795
H             -4.53181943        0.71059691       -1.12919044
H             -5.29951777       -1.60163812       -1.05565495
H             -4.73898739       -3.84868804        2.68182200
H             -4.97413769       -5.15469562        1.49601854
H             -3.34631937       -4.48516681        1.75947490
H             -3.00131844       -2.25118595        2.49604246
H             -2.24354768        0.04705204        2.42445234
H             -3.17620738        2.55307582       -1.46285845
H             -1.77808403        3.33266423       -0.73051461
H             -1.94193102        0.37729132       -1.49391534
H             -1.25220439        1.66099998       -2.48930059
H             -0.79385685        1.65148459        1.18004272
H              0.50896110        2.09830662       -0.73278370
H              2.05259846       -0.67129295        0.67413744
H              2.19624729        1.03324772        0.21795263
H              2.58293255        0.34351833       -2.15962381
H              2.55592494       -1.35429571       -1.65801465
H              4.42114135        1.82699839       -1.46469842
H              6.76493930        2.00181663       -0.82535123
H              8.60205063        1.91102084        0.65768501
H              9.07206259        1.43912985       -1.00115183
H              9.99826330        0.83750828        0.39568313
H              7.20826963       -4.23126443        0.86270416
H              5.58959203       -3.58503275        1.22331729
H              6.05519669       -3.95181788       -0.46435975
H              4.38654594       -2.29417947       -0.36966572
H             -0.33942454       -1.47132205       -1.67458790
H             -1.12260660       -1.18795300       -0.10713363
H              0.45490052       -1.98541348       -0.17915691
H             -4.84730784        2.68105139        0.20953969
H             -3.93844339        2.77406400        3.11060105
H             -4.90867743        1.48432984        2.38494427
H             -5.56074773        3.11604465        2.50888461
H             -2.97129974        4.64020098        1.59668995
H             -3.50687701        4.72056774       -0.09079466
H             -4.65963837        4.95115134        1.21346538
H             -0.84542302        2.98541259        3.10463070
