 xtb: 6.6.1 (8d0f1dd)
          04062411163D

 72 73  0     0  0            999 V2000
   -2.2086    3.0173    2.4650 N   0  0  0  0  0  0  0  0  0  0  0  0
   -2.0806    2.2318    1.4980 C   0  0  0  0  0  0  0  0  0  0  0  0
   -3.1501    1.9961    0.4641 C   0  0  0  0  0  0  0  0  0  0  0  0
   -3.5891    0.5388    0.5005 C   0  0  0  0  0  0  0  0  0  0  0  0
   -4.4511    0.0530   -0.4859 C   0  0  0  0  0  0  0  0  0  0  0  0
   -4.8717   -1.2649   -0.4956 C   0  0  0  0  0  0  0  0  0  0  0  0
   -5.7160   -1.8060   -1.4062 O   0  0  0  0  0  0  0  0  0  0  0  0
   -6.3895   -0.9540   -2.3020 C   0  0  0  0  0  0  0  0  0  0  0  0
   -4.4010   -2.1559    0.5020 C   0  0  0  0  0  0  0  0  0  0  0  0
   -4.8372   -3.4322    0.3973 O   0  0  0  0  0  0  0  0  0  0  0  0
   -4.4971   -4.3513    1.4080 C   0  0  0  0  0  0  0  0  0  0  0  0
   -3.5575   -1.6666    1.4845 C   0  0  0  0  0  0  0  0  0  0  0  0
   -3.1643   -0.3335    1.4870 C   0  0  0  0  0  0  0  0  0  0  0  0
   -2.4596    2.2832   -0.9133 C   0  0  0  0  0  0  0  0  0  0  0  0
   -1.5840    1.1530   -1.3226 C   0  0  0  0  0  0  0  0  0  0  0  0
   -0.2528    1.1766   -1.1981 C   0  0  0  0  0  0  0  0  0  0  0  0
    0.6213    0.0370   -1.5283 N   0  0  0  0  0  0  0  0  0  0  0  0
    1.9932    0.2231   -0.9736 C   0  0  0  0  0  0  0  0  0  0  0  0
    3.0434   -0.6219   -1.6936 C   0  0  0  0  0  0  0  0  0  0  0  0
    4.4075   -0.3301   -1.1122 C   0  0  0  0  0  0  0  0  0  0  0  0
    5.0218    0.8876   -1.3405 C   0  0  0  0  0  0  0  0  0  0  0  0
    6.2647    1.1663   -0.7903 C   0  0  0  0  0  0  0  0  0  0  0  0
    6.9190    0.2264   -0.0096 C   0  0  0  0  0  0  0  0  0  0  0  0
    8.1256    0.3877    0.5690 O   0  0  0  0  0  0  0  0  0  0  0  0
    8.8251    1.5942    0.3681 C   0  0  0  0  0  0  0  0  0  0  0  0
    6.3006   -1.0314    0.2181 C   0  0  0  0  0  0  0  0  0  0  0  0
    7.0137   -1.8947    0.9725 O   0  0  0  0  0  0  0  0  0  0  0  0
    6.5141   -3.1924    1.1882 C   0  0  0  0  0  0  0  0  0  0  0  0
    5.0530   -1.2836   -0.3277 C   0  0  0  0  0  0  0  0  0  0  0  0
    0.0352   -1.2488   -1.0913 C   0  0  0  0  0  0  0  0  0  0  0  0
   -4.3966    2.9053    0.6327 C   0  0  0  0  0  0  0  0  0  0  0  0
   -5.1191    2.6094    1.9452 C   0  0  0  0  0  0  0  0  0  0  0  0
   -4.0734    4.3940    0.5391 C   0  0  0  0  0  0  0  0  0  0  0  0
   -4.8094    0.7224   -1.2508 H   0  0  0  0  0  0  0  0  0  0  0  0
   -6.9403   -0.1707   -1.7725 H   0  0  0  0  0  0  0  0  0  0  0  0
   -7.0925   -1.5893   -2.8371 H   0  0  0  0  0  0  0  0  0  0  0  0
   -5.7021   -0.4955   -3.0213 H   0  0  0  0  0  0  0  0  0  0  0  0
   -4.8528   -4.0207    2.3882 H   0  0  0  0  0  0  0  0  0  0  0  0
   -4.9959   -5.2800    1.1381 H   0  0  0  0  0  0  0  0  0  0  0  0
   -3.4159   -4.5211    1.4507 H   0  0  0  0  0  0  0  0  0  0  0  0
   -3.2090   -2.3127    2.2739 H   0  0  0  0  0  0  0  0  0  0  0  0
   -2.5368    0.0164    2.2918 H   0  0  0  0  0  0  0  0  0  0  0  0
   -3.2365    2.4279   -1.6637 H   0  0  0  0  0  0  0  0  0  0  0  0
   -1.8820    3.2030   -0.8277 H   0  0  0  0  0  0  0  0  0  0  0  0
   -2.0963    0.2718   -1.6754 H   0  0  0  0  0  0  0  0  0  0  0  0
    0.7202   -0.0005   -2.5443 H   0  0  0  0  0  0  0  0  0  0  0  0
   -1.1583    1.6629    1.2905 H   0  0  0  0  0  0  0  0  0  0  0  0
    0.2744    2.0530   -0.8610 H   0  0  0  0  0  0  0  0  0  0  0  0
    1.9738   -0.0146    0.0922 H   0  0  0  0  0  0  0  0  0  0  0  0
    2.2694    1.2733   -1.0840 H   0  0  0  0  0  0  0  0  0  0  0  0
    3.0416   -0.3716   -2.7582 H   0  0  0  0  0  0  0  0  0  0  0  0
    2.8360   -1.6873   -1.5902 H   0  0  0  0  0  0  0  0  0  0  0  0
    4.5482    1.6319   -1.9634 H   0  0  0  0  0  0  0  0  0  0  0  0
    6.7192    2.1234   -0.9854 H   0  0  0  0  0  0  0  0  0  0  0  0
    8.2789    2.4479    0.7813 H   0  0  0  0  0  0  0  0  0  0  0  0
    9.0286    1.7680   -0.6928 H   0  0  0  0  0  0  0  0  0  0  0  0
    9.7666    1.4769    0.9011 H   0  0  0  0  0  0  0  0  0  0  0  0
    7.2729   -3.7025    1.7784 H   0  0  0  0  0  0  0  0  0  0  0  0
    5.5737   -3.1750    1.7489 H   0  0  0  0  0  0  0  0  0  0  0  0
    6.3695   -3.7286    0.2448 H   0  0  0  0  0  0  0  0  0  0  0  0
    4.5757   -2.2363   -0.1590 H   0  0  0  0  0  0  0  0  0  0  0  0
   -0.8197   -1.5110   -1.7086 H   0  0  0  0  0  0  0  0  0  0  0  0
   -0.2988   -1.1649   -0.0575 H   0  0  0  0  0  0  0  0  0  0  0  0
    0.7736   -2.0430   -1.1696 H   0  0  0  0  0  0  0  0  0  0  0  0
   -5.0792    2.6573   -0.1882 H   0  0  0  0  0  0  0  0  0  0  0  0
   -4.4934    2.8930    2.7848 H   0  0  0  0  0  0  0  0  0  0  0  0
   -5.3627    1.5527    2.0267 H   0  0  0  0  0  0  0  0  0  0  0  0
   -6.0431    3.1797    1.9897 H   0  0  0  0  0  0  0  0  0  0  0  0
   -3.3732    4.6758    1.3186 H   0  0  0  0  0  0  0  0  0  0  0  0
   -3.6585    4.6584   -0.4304 H   0  0  0  0  0  0  0  0  0  0  0  0
   -4.9872    4.9659    0.6775 H   0  0  0  0  0  0  0  0  0  0  0  0
   -1.4108    3.1142    3.0866 H   0  0  0  0  0  0  0  0  0  0  0  0
  1  2  2  0  0  0  0
  2  3  1  0  0  0  0
  3  4  1  0  0  0  0
  4  5  4  0  0  0  0
  5  6  4  0  0  0  0
  6  7  1  0  0  0  0
  7  8  1  0  0  0  0
  6  9  4  0  0  0  0
  9 10  1  0  0  0  0
 10 11  1  0  0  0  0
  9 12  4  0  0  0  0
  4 13  4  0  0  0  0
 12 13  4  0  0  0  0
  3 14  1  0  0  0  0
 14 15  1  0  0  0  0
 15 16  2  0  0  0  0
 16 17  1  0  0  0  0
 17 18  1  0  0  0  0
 18 19  1  0  0  0  0
 19 20  1  0  0  0  0
 20 21  4  0  0  0  0
 21 22  4  0  0  0  0
 22 23  4  0  0  0  0
 23 24  1  0  0  0  0
 24 25  1  0  0  0  0
 23 26  4  0  0  0  0
 26 27  1  0  0  0  0
 27 28  1  0  0  0  0
 20 29  4  0  0  0  0
 26 29  4  0  0  0  0
 17 30  1  0  0  0  0
  3 31  1  0  0  0  0
 31 32  1  0  0  0  0
 31 33  1  0  0  0  0
  5 34  1  0  0  0  0
  8 35  1  0  0  0  0
  8 36  1  0  0  0  0
  8 37  1  0  0  0  0
 11 38  1  0  0  0  0
 11 39  1  0  0  0  0
 11 40  1  0  0  0  0
 12 41  1  0  0  0  0
 13 42  1  0  0  0  0
 14 43  1  0  0  0  0
 14 44  1  0  0  0  0
 15 45  1  0  0  0  0
 17 46  1  0  0  0  0
  2 47  1  0  0  0  0
 16 48  1  0  0  0  0
 18 49  1  0  0  0  0
 18 50  1  0  0  0  0
 19 51  1  0  0  0  0
 19 52  1  0  0  0  0
 21 53  1  0  0  0  0
 22 54  1  0  0  0  0
 25 55  1  0  0  0  0
 25 56  1  0  0  0  0
 25 57  1  0  0  0  0
 28 58  1  0  0  0  0
 28 59  1  0  0  0  0
 28 60  1  0  0  0  0
 29 61  1  0  0  0  0
 30 62  1  0  0  0  0
 30 63  1  0  0  0  0
 30 64  1  0  0  0  0
 31 65  1  0  0  0  0
 32 66  1  0  0  0  0
 32 67  1  0  0  0  0
 32 68  1  0  0  0  0
 33 69  1  0  0  0  0
 33 70  1  0  0  0  0
 33 71  1  0  0  0  0
  1 72  1  0  0  0  0
M  CHG  1   1   1
M  END
