 xtb: 6.6.1 (8d0f1dd)
          06052420003D

 25 25  0     0  0            999 V2000
    2.9182    1.2336   -0.2447 C   0  0  0  0  0  0  0  0  0  0  0  0
    2.2064   -0.0124   -0.1575 N   0  0  0  0  0  0  0  0  0  0  0  0
    2.7674   -1.2010   -0.2180 C   0  0  0  0  0  0  0  0  0  0  0  0
    1.8444   -2.1537   -0.1140 N   0  0  0  0  0  0  0  0  0  0  0  0
    0.5749   -1.5941    0.0617 C   0  0  0  0  0  0  0  0  0  0  0  0
    0.8103   -0.1604   -0.0472 C   0  0  0  0  0  0  0  0  0  0  0  0
    0.0424    1.0062    0.0640 C   0  0  0  0  0  0  0  0  0  0  0  0
    0.3668    2.1221    0.3736 O   0  0  0  0  0  0  0  0  0  0  0  0
   -1.4726    0.9101   -0.3748 N   0  0  0  0  0  0  0  0  0  0  0  0
   -2.4003    1.5759    0.5423 C   0  0  0  0  0  0  0  0  0  0  0  0
   -1.7032    0.7305   -1.5875 C   0  0  0  0  0  0  0  0  0  0  0  0
   -1.7637    0.4558   -2.7023 O   0  0  0  0  0  0  0  0  0  0  0  0
   -0.3693   -2.3975    0.3555 N   0  0  0  0  0  0  0  0  0  0  0  0
   -1.7092   -2.0658    0.6797 C   0  0  0  0  0  0  0  0  0  0  0  0
    2.7709    1.8182    0.6641 H   0  0  0  0  0  0  0  0  0  0  0  0
    3.9781    1.0305   -0.3787 H   0  0  0  0  0  0  0  0  0  0  0  0
    2.5549    1.8245   -1.0860 H   0  0  0  0  0  0  0  0  0  0  0  0
    3.8205   -1.3734   -0.3393 H   0  0  0  0  0  0  0  0  0  0  0  0
   -1.8792    2.4223    0.9921 H   0  0  0  0  0  0  0  0  0  0  0  0
   -3.2822    1.9294    0.0112 H   0  0  0  0  0  0  0  0  0  0  0  0
   -2.6986    0.8748    1.3217 H   0  0  0  0  0  0  0  0  0  0  0  0
   -2.1249   -2.9167    1.2216 H   0  0  0  0  0  0  0  0  0  0  0  0
   -2.3094   -1.9166   -0.2241 H   0  0  0  0  0  0  0  0  0  0  0  0
   -1.7752   -1.1724    1.3100 H   0  0  0  0  0  0  0  0  0  0  0  0
    1.9931   -3.1515   -0.0921 H   0  0  0  0  0  0  0  0  0  0  0  0
  1  2  1  0  0  0  0
  2  3  4  0  0  0  0
  3  4  4  0  0  0  0
  4  5  1  0  0  0  0
  2  6  1  0  0  0  0
  5  6  1  0  0  0  0
  6  7  4  0  0  0  0
  7  8  2  0  0  0  0
  7  9  1  0  0  0  0
  9 10  1  0  0  0  0
  9 11  2  0  0  0  0
 11 12  2  0  0  0  0
  5 13  2  0  0  0  0
 13 14  1  0  0  0  0
  1 15  1  0  0  0  0
  1 16  1  0  0  0  0
  1 17  1  0  0  0  0
  3 18  1  0  0  0  0
 10 19  1  0  0  0  0
 10 20  1  0  0  0  0
 10 21  1  0  0  0  0
 14 22  1  0  0  0  0
 14 23  1  0  0  0  0
 14 24  1  0  0  0  0
  4 25  1  0  0  0  0
M  CHG  1   1   1
M  END
