 xtb: 6.6.1 (8d0f1dd)
          06052419583D

 25 26  0     0  0            999 V2000
    3.3455    1.3053    0.0182 C   0  0  0  0  0  0  0  0  0  0  0  0
    2.4287    0.1963   -0.0000 N   0  0  0  0  0  0  0  0  0  0  0  0
    2.7372   -1.1131   -0.0049 C   0  0  0  0  0  0  0  0  0  0  0  0
    1.6795   -1.9001   -0.0061 N   0  0  0  0  0  0  0  0  0  0  0  0
    0.6357   -1.0623   -0.0006 C   0  0  0  0  0  0  0  0  0  0  0  0
    1.0611    0.2648    0.0039 C   0  0  0  0  0  0  0  0  0  0  0  0
    0.1510    1.3674   -0.0014 C   0  0  0  0  0  0  0  0  0  0  0  0
    0.3787    2.5440   -0.0088 O   0  0  0  0  0  0  0  0  0  0  0  0
   -1.2122    0.8864    0.0003 N   0  0  0  0  0  0  0  0  0  0  0  0
   -2.2609    1.8965   -0.0003 C   0  0  0  0  0  0  0  0  0  0  0  0
   -1.5785   -0.3977   -0.0012 C   0  0  0  0  0  0  0  0  0  0  0  0
   -2.8705   -0.6307   -0.0023 O   0  0  0  0  0  0  0  0  0  0  0  0
   -0.6983   -1.4003   -0.0020 N   0  0  0  0  0  0  0  0  0  0  0  0
   -1.0683   -2.8059   -0.0051 C   0  0  0  0  0  0  0  0  0  0  0  0
    3.8502    1.3602    0.9840 H   0  0  0  0  0  0  0  0  0  0  0  0
    4.0949    1.1809   -0.7628 H   0  0  0  0  0  0  0  0  0  0  0  0
    2.7935    2.2285   -0.1472 H   0  0  0  0  0  0  0  0  0  0  0  0
    3.7407   -1.4888   -0.0090 H   0  0  0  0  0  0  0  0  0  0  0  0
   -1.7752    2.8707    0.0070 H   0  0  0  0  0  0  0  0  0  0  0  0
   -2.8787    1.7979   -0.8913 H   0  0  0  0  0  0  0  0  0  0  0  0
   -2.8883    1.7883    0.8827 H   0  0  0  0  0  0  0  0  0  0  0  0
   -1.6326   -3.0670    0.8915 H   0  0  0  0  0  0  0  0  0  0  0  0
   -1.6325   -3.0634   -0.9028 H   0  0  0  0  0  0  0  0  0  0  0  0
   -3.1062   -1.5726   -0.0044 H   0  0  0  0  0  0  0  0  0  0  0  0
   -0.1340   -3.3672   -0.0063 H   0  0  0  0  0  0  0  0  0  0  0  0
  1  2  1  0  0  0  0
  2  3  4  0  0  0  0
  3  4  4  0  0  0  0
  4  5  4  0  0  0  0
  2  6  1  0  0  0  0
  5  6  4  0  0  0  0
  6  7  1  0  0  0  0
  7  8  2  0  0  0  0
  7  9  1  0  0  0  0
  9 10  1  0  0  0  0
  9 11  4  0  0  0  0
 11 12  1  0  0  0  0
  5 13  1  0  0  0  0
 11 13  4  0  0  0  0
 13 14  1  0  0  0  0
  1 15  1  0  0  0  0
  1 16  1  0  0  0  0
  1 17  1  0  0  0  0
  3 18  1  0  0  0  0
 10 19  1  0  0  0  0
 10 20  1  0  0  0  0
 10 21  1  0  0  0  0
 14 22  1  0  0  0  0
 14 23  1  0  0  0  0
 12 24  1  0  0  0  0
 14 25  1  0  0  0  0
M  CHG  1   1   1
M  END
