 xtb: 6.6.1 (8d0f1dd)
          06052419583D

 25 26  0     0  0            999 V2000
    3.3048    1.1166   -0.0064 C   0  0  0  0  0  0  0  0  0  0  0  0
    2.3204    0.0705    0.0095 N   0  0  0  0  0  0  0  0  0  0  0  0
    2.5544   -1.2540    0.0386 C   0  0  0  0  0  0  0  0  0  0  0  0
    1.3682   -1.9270    0.0419 N   0  0  0  0  0  0  0  0  0  0  0  0
    0.3620   -1.0053    0.0138 C   0  0  0  0  0  0  0  0  0  0  0  0
    0.9511    0.2606   -0.0068 C   0  0  0  0  0  0  0  0  0  0  0  0
    0.2038    1.4643   -0.0440 C   0  0  0  0  0  0  0  0  0  0  0  0
    0.6057    2.6114   -0.0683 O   0  0  0  0  0  0  0  0  0  0  0  0
   -1.2423    1.2006   -0.0686 N   0  0  0  0  0  0  0  0  0  0  0  0
   -2.0141    2.3078   -0.1554 C   0  0  0  0  0  0  0  0  0  0  0  0
   -1.7621   -0.0519    0.0235 C   0  0  0  0  0  0  0  0  0  0  0  0
   -3.0860   -0.2745    0.0523 O   0  0  0  0  0  0  0  0  0  0  0  0
   -0.9828   -1.1864    0.0266 N   0  0  0  0  0  0  0  0  0  0  0  0
   -1.5597   -2.5137    0.0615 C   0  0  0  0  0  0  0  0  0  0  0  0
    3.9266    1.0691    0.8888 H   0  0  0  0  0  0  0  0  0  0  0  0
    3.9461    1.0239   -0.8843 H   0  0  0  0  0  0  0  0  0  0  0  0
    2.7893    2.0755   -0.0364 H   0  0  0  0  0  0  0  0  0  0  0  0
    3.5187   -1.7148    0.0582 H   0  0  0  0  0  0  0  0  0  0  0  0
   -1.5001    3.2471   -0.1832 H   0  0  0  0  0  0  0  0  0  0  0  0
   -3.0788    2.2528   -0.2602 H   0  0  0  0  0  0  0  0  0  0  0  0
   -3.5958    0.5209    0.2550 H   0  0  0  0  0  0  0  0  0  0  0  0
   -1.2027   -3.0540    0.9398 H   0  0  0  0  0  0  0  0  0  0  0  0
   -1.2901   -3.0617   -0.8430 H   0  0  0  0  0  0  0  0  0  0  0  0
   -2.6415   -2.4305    0.1119 H   0  0  0  0  0  0  0  0  0  0  0  0
    1.2652   -2.9289    0.0662 H   0  0  0  0  0  0  0  0  0  0  0  0
  1  2  1  0  0  0  0
  2  3  4  0  0  0  0
  3  4  4  0  0  0  0
  4  5  1  0  0  0  0
  2  6  1  0  0  0  0
  5  6  4  0  0  0  0
  6  7  1  0  0  0  0
  7  8  2  0  0  0  0
  7  9  1  0  0  0  0
  9 10  4  0  0  0  0
  9 11  1  0  0  0  0
 11 12  1  0  0  0  0
  5 13  1  0  0  0  0
 11 13  1  0  0  0  0
 13 14  1  0  0  0  0
  1 15  1  0  0  0  0
  1 16  1  0  0  0  0
  1 17  1  0  0  0  0
  3 18  1  0  0  0  0
 10 19  1  0  0  0  0
 10 20  1  0  0  0  0
 12 21  1  0  0  0  0
 14 22  1  0  0  0  0
 14 23  1  0  0  0  0
 14 24  1  0  0  0  0
  4 25  1  0  0  0  0
M  CHG  1   1   1
M  END
