 xtb: 6.6.1 (8d0f1dd)
          04062411153D

 72 74  0     0  0            999 V2000
   -1.0594    3.1374    1.0449 N   0  0  0  0  0  0  0  0  0  0  0  0
   -1.4355    1.7951    0.7035 C   0  0  0  0  0  0  0  0  0  0  0  0
   -2.8370    1.6539    0.0199 C   0  0  0  0  0  0  0  0  0  0  0  0
   -3.4409    0.2633    0.1544 C   0  0  0  0  0  0  0  0  0  0  0  0
   -4.3465   -0.1915   -0.8071 C   0  0  0  0  0  0  0  0  0  0  0  0
   -4.9658   -1.4275   -0.7125 C   0  0  0  0  0  0  0  0  0  0  0  0
   -5.8299   -1.9363   -1.6132 O   0  0  0  0  0  0  0  0  0  0  0  0
   -6.1378   -1.2027   -2.7746 C   0  0  0  0  0  0  0  0  0  0  0  0
   -4.7067   -2.2575    0.4110 C   0  0  0  0  0  0  0  0  0  0  0  0
   -5.3612   -3.4323    0.4300 O   0  0  0  0  0  0  0  0  0  0  0  0
   -5.2049   -4.2897    1.5371 C   0  0  0  0  0  0  0  0  0  0  0  0
   -3.8305   -1.7943    1.3799 C   0  0  0  0  0  0  0  0  0  0  0  0
   -3.2107   -0.5591    1.2523 C   0  0  0  0  0  0  0  0  0  0  0  0
   -2.4442    1.9410   -1.4406 C   0  0  0  0  0  0  0  0  0  0  0  0
   -1.2225    1.0500   -1.6406 C   0  0  0  0  0  0  0  0  0  0  0  0
   -0.4068    1.2599   -0.3506 C   0  0  0  0  0  0  0  0  0  0  0  0
    0.3515    0.1470    0.1462 N   0  0  0  0  0  0  0  0  0  0  0  0
    1.7719    0.2987    0.2752 C   0  0  0  0  0  0  0  0  0  0  0  0
    2.5557    0.1170   -1.0488 C   0  0  0  0  0  0  0  0  0  0  0  0
    4.0258    0.2214   -0.7855 C   0  0  0  0  0  0  0  0  0  0  0  0
    4.7100    1.4125   -0.9826 C   0  0  0  0  0  0  0  0  0  0  0  0
    6.0624    1.5123   -0.6979 C   0  0  0  0  0  0  0  0  0  0  0  0
    6.7622    0.4222   -0.1973 C   0  0  0  0  0  0  0  0  0  0  0  0
    8.0689    0.4040    0.1182 O   0  0  0  0  0  0  0  0  0  0  0  0
    8.8390    1.5705   -0.0594 C   0  0  0  0  0  0  0  0  0  0  0  0
    6.0687   -0.8038    0.0146 C   0  0  0  0  0  0  0  0  0  0  0  0
    6.8193   -1.8089    0.5040 O   0  0  0  0  0  0  0  0  0  0  0  0
    6.2225   -3.0602    0.7493 C   0  0  0  0  0  0  0  0  0  0  0  0
    4.7173   -0.8792   -0.2834 C   0  0  0  0  0  0  0  0  0  0  0  0
   -0.1345   -1.1956   -0.0128 C   0  0  0  0  0  0  0  0  0  0  0  0
   -3.8750    2.6643    0.6123 C   0  0  0  0  0  0  0  0  0  0  0  0
   -4.3238    2.2789    2.0240 C   0  0  0  0  0  0  0  0  0  0  0  0
   -3.4320    4.0653    0.5830 C   0  0  0  0  0  0  0  0  0  0  0  0
   -4.5950    0.4339   -1.6473 H   0  0  0  0  0  0  0  0  0  0  0  0
   -6.6292   -0.2546   -2.5349 H   0  0  0  0  0  0  0  0  0  0  0  0
   -6.8252   -1.8285   -3.3404 H   0  0  0  0  0  0  0  0  0  0  0  0
   -5.2440   -1.0118   -3.3774 H   0  0  0  0  0  0  0  0  0  0  0  0
   -5.5382   -3.8113    2.4630 H   0  0  0  0  0  0  0  0  0  0  0  0
   -5.8355   -5.1519    1.3292 H   0  0  0  0  0  0  0  0  0  0  0  0
   -4.1667   -4.6174    1.6477 H   0  0  0  0  0  0  0  0  0  0  0  0
   -3.6222   -2.3897    2.2539 H   0  0  0  0  0  0  0  0  0  0  0  0
   -2.5577   -0.2519    2.0523 H   0  0  0  0  0  0  0  0  0  0  0  0
   -3.2254    1.7402   -2.1669 H   0  0  0  0  0  0  0  0  0  0  0  0
   -2.1575    2.9868   -1.5501 H   0  0  0  0  0  0  0  0  0  0  0  0
   -1.5417    0.0137   -1.7347 H   0  0  0  0  0  0  0  0  0  0  0  0
   -0.6497    1.3157   -2.5278 H   0  0  0  0  0  0  0  0  0  0  0  0
   -1.3693    1.2125    1.6222 H   0  0  0  0  0  0  0  0  0  0  0  0
    0.3076    2.0703   -0.5188 H   0  0  0  0  0  0  0  0  0  0  0  0
    2.1307   -0.4424    0.9943 H   0  0  0  0  0  0  0  0  0  0  0  0
    1.9846    1.2905    0.6809 H   0  0  0  0  0  0  0  0  0  0  0  0
    2.2416    0.8814   -1.7605 H   0  0  0  0  0  0  0  0  0  0  0  0
    2.3187   -0.8636   -1.4639 H   0  0  0  0  0  0  0  0  0  0  0  0
    4.1897    2.2745   -1.3711 H   0  0  0  0  0  0  0  0  0  0  0  0
    6.5675    2.4487   -0.8699 H   0  0  0  0  0  0  0  0  0  0  0  0
    8.4661    2.3937    0.5574 H   0  0  0  0  0  0  0  0  0  0  0  0
    8.8606    1.8800   -1.1085 H   0  0  0  0  0  0  0  0  0  0  0  0
    9.8455    1.3070    0.2602 H   0  0  0  0  0  0  0  0  0  0  0  0
    7.0184   -3.6922    1.1386 H   0  0  0  0  0  0  0  0  0  0  0  0
    5.4239   -2.9840    1.4940 H   0  0  0  0  0  0  0  0  0  0  0  0
    5.8257   -3.5023   -0.1698 H   0  0  0  0  0  0  0  0  0  0  0  0
    4.1840   -1.8051   -0.1354 H   0  0  0  0  0  0  0  0  0  0  0  0
    0.0629   -1.6079   -1.0109 H   0  0  0  0  0  0  0  0  0  0  0  0
   -1.2069   -1.2249    0.1699 H   0  0  0  0  0  0  0  0  0  0  0  0
    0.3582   -1.8351    0.7197 H   0  0  0  0  0  0  0  0  0  0  0  0
   -4.7475    2.5730   -0.0578 H   0  0  0  0  0  0  0  0  0  0  0  0
   -3.4781    2.2651    2.7074 H   0  0  0  0  0  0  0  0  0  0  0  0
   -4.7939    1.3001    2.0379 H   0  0  0  0  0  0  0  0  0  0  0  0
   -5.0467    3.0036    2.3899 H   0  0  0  0  0  0  0  0  0  0  0  0
   -0.8329    3.7055    0.2396 H   0  0  0  0  0  0  0  0  0  0  0  0
   -3.1502    4.5365   -0.3395 H   0  0  0  0  0  0  0  0  0  0  0  0
   -3.7165    4.7180    1.3928 H   0  0  0  0  0  0  0  0  0  0  0  0
   -1.7186    3.6116    1.6531 H   0  0  0  0  0  0  0  0  0  0  0  0
  1  2  1  0  0  0  0
  2  3  1  0  0  0  0
  3  4  1  0  0  0  0
  4  5  4  0  0  0  0
  5  6  4  0  0  0  0
  6  7  1  0  0  0  0
  7  8  1  0  0  0  0
  6  9  4  0  0  0  0
  9 10  1  0  0  0  0
 10 11  1  0  0  0  0
  9 12  4  0  0  0  0
  4 13  4  0  0  0  0
 12 13  4  0  0  0  0
  3 14  1  0  0  0  0
 14 15  1  0  0  0  0
  2 16  1  0  0  0  0
 15 16  1  0  0  0  0
 16 17  1  0  0  0  0
 17 18  1  0  0  0  0
 18 19  1  0  0  0  0
 19 20  1  0  0  0  0
 20 21  4  0  0  0  0
 21 22  4  0  0  0  0
 22 23  4  0  0  0  0
 23 24  1  0  0  0  0
 24 25  1  0  0  0  0
 23 26  4  0  0  0  0
 26 27  1  0  0  0  0
 27 28  1  0  0  0  0
 20 29  4  0  0  0  0
 26 29  4  0  0  0  0
 17 30  1  0  0  0  0
  3 31  1  0  0  0  0
 31 32  1  0  0  0  0
 31 33  1  0  0  0  0
  5 34  1  0  0  0  0
  8 35  1  0  0  0  0
  8 36  1  0  0  0  0
  8 37  1  0  0  0  0
 11 38  1  0  0  0  0
 11 39  1  0  0  0  0
 11 40  1  0  0  0  0
 12 41  1  0  0  0  0
 13 42  1  0  0  0  0
 14 43  1  0  0  0  0
 14 44  1  0  0  0  0
 15 45  1  0  0  0  0
 15 46  1  0  0  0  0
  2 47  1  0  0  0  0
 16 48  1  0  0  0  0
 18 49  1  0  0  0  0
 18 50  1  0  0  0  0
 19 51  1  0  0  0  0
 19 52  1  0  0  0  0
 21 53  1  0  0  0  0
 22 54  1  0  0  0  0
 25 55  1  0  0  0  0
 25 56  1  0  0  0  0
 25 57  1  0  0  0  0
 28 58  1  0  0  0  0
 28 59  1  0  0  0  0
 28 60  1  0  0  0  0
 29 61  1  0  0  0  0
 30 62  1  0  0  0  0
 30 63  1  0  0  0  0
 30 64  1  0  0  0  0
 31 65  1  0  0  0  0
 32 66  1  0  0  0  0
 32 67  1  0  0  0  0
 32 68  1  0  0  0  0
  1 69  1  0  0  0  0
 33 70  1  0  0  0  0
 33 71  1  0  0  0  0
  1 72  1  0  0  0  0
M  CHG  1   1   1
M  END
