 xtb: 6.6.1 (8d0f1dd)
          06052419583D

 25 25  0     0  0            999 V2000
    3.5885    1.5070    0.1135 C   0  0  0  0  0  0  0  0  0  0  0  0
    2.1654   -0.5487   -0.0789 N   0  0  0  0  0  0  0  0  0  0  0  0
    3.2738    0.0760   -0.0590 C   0  0  0  0  0  0  0  0  0  0  0  0
    0.5546   -2.7687    0.0164 N   0  0  0  0  0  0  0  0  0  0  0  0
    0.0649   -1.5876    0.0060 C   0  0  0  0  0  0  0  0  0  0  0  0
    0.8476   -0.3641   -0.0348 C   0  0  0  0  0  0  0  0  0  0  0  0
    0.1592    0.9207   -0.0695 C   0  0  0  0  0  0  0  0  0  0  0  0
    0.7339    1.9962   -0.1179 O   0  0  0  0  0  0  0  0  0  0  0  0
   -1.2236    0.8669   -0.0350 N   0  0  0  0  0  0  0  0  0  0  0  0
   -1.9628    2.1153   -0.0506 C   0  0  0  0  0  0  0  0  0  0  0  0
   -1.9893   -0.2872    0.0077 C   0  0  0  0  0  0  0  0  0  0  0  0
   -3.1953   -0.2301    0.0285 O   0  0  0  0  0  0  0  0  0  0  0  0
   -1.3056   -1.4852    0.0239 N   0  0  0  0  0  0  0  0  0  0  0  0
   -2.0766   -2.7082    0.0436 C   0  0  0  0  0  0  0  0  0  0  0  0
    4.2212    1.6413    0.9932 H   0  0  0  0  0  0  0  0  0  0  0  0
    4.1769    1.8367   -0.7481 H   0  0  0  0  0  0  0  0  0  0  0  0
    2.6925    2.1213    0.2003 H   0  0  0  0  0  0  0  0  0  0  0  0
    4.1394   -0.5768   -0.1858 H   0  0  0  0  0  0  0  0  0  0  0  0
   -1.2513    2.9403   -0.0735 H   0  0  0  0  0  0  0  0  0  0  0  0
   -2.6122    2.1535   -0.9280 H   0  0  0  0  0  0  0  0  0  0  0  0
   -2.5946    2.1846    0.8377 H   0  0  0  0  0  0  0  0  0  0  0  0
   -1.8147   -3.2987    0.9238 H   0  0  0  0  0  0  0  0  0  0  0  0
   -1.8477   -3.3050   -0.8419 H   0  0  0  0  0  0  0  0  0  0  0  0
   -3.1362   -2.4517    0.0612 H   0  0  0  0  0  0  0  0  0  0  0  0
    1.5522   -2.9297   -0.0018 H   0  0  0  0  0  0  0  0  0  0  0  0
  1  3  1  0  0  0  0
  2  3  2  0  0  0  0
  4  5  2  0  0  0  0
  2  6  4  0  0  0  0
  5  6  1  0  0  0  0
  6  7  1  0  0  0  0
  7  8  2  0  0  0  0
  7  9  1  0  0  0  0
  9 10  1  0  0  0  0
  9 11  1  0  0  0  0
 11 12  2  0  0  0  0
  5 13  1  0  0  0  0
 11 13  1  0  0  0  0
 13 14  1  0  0  0  0
  1 15  1  0  0  0  0
  1 16  1  0  0  0  0
  1 17  1  0  0  0  0
  3 18  1  0  0  0  0
 10 19  1  0  0  0  0
 10 20  1  0  0  0  0
 10 21  1  0  0  0  0
 14 22  1  0  0  0  0
 14 23  1  0  0  0  0
 14 24  1  0  0  0  0
  4 25  1  0  0  0  0
M  CHG  1   1   1
M  END
