          21
 
C              3.43705249        0.51482763        0.02434797
N              2.34943719       -0.42335130       -0.02637462
C              2.43345947       -1.74739636       -0.14334628
N              1.19096229       -2.28807968       -0.13603989
C              0.28679032       -1.26864950       -0.00925254
C              1.02264559       -0.09023452        0.06086272
C              0.33658559        1.20829561        0.15859960
O              0.93370096        2.26942551        0.17835733
N             -1.00011835        1.07313864        0.20536024
C             -1.74372219       -0.02298201        0.16338906
O             -2.94735805       -0.05556792        0.20806467
N             -1.04748469       -1.30848531        0.03702104
C             -1.81455549       -2.52507315       -0.05502028
H              3.94966308        0.45119388        0.98651471
H              4.15361702        0.31002025       -0.77019370
H              3.03126974        1.52166439       -0.08800273
H              3.34247052       -2.30701454       -0.23409657
H             -1.63842791       -3.16309959        0.81390559
H             -1.57255147       -3.06606605       -0.97065123
H             -2.86736246       -2.23905054       -0.07266515
H              0.97861471       -3.27292612       -0.20713404
