 xtb: 6.6.1 (8d0f1dd)
          06052419583D

 25 26  0     0  0            999 V2000
    3.1117    1.2209   -0.0352 C   0  0  0  0  0  0  0  0  0  0  0  0
    2.1776    0.1288   -0.0515 N   0  0  0  0  0  0  0  0  0  0  0  0
    2.5059   -1.1817   -0.0559 C   0  0  0  0  0  0  0  0  0  0  0  0
    1.3740   -1.9351   -0.0320 N   0  0  0  0  0  0  0  0  0  0  0  0
    0.3050   -1.0918   -0.0107 C   0  0  0  0  0  0  0  0  0  0  0  0
    0.8019    0.2201   -0.0217 C   0  0  0  0  0  0  0  0  0  0  0  0
   -0.0856    1.2918   -0.0159 C   0  0  0  0  0  0  0  0  0  0  0  0
    0.3108    2.5733    0.0129 O   0  0  0  0  0  0  0  0  0  0  0  0
   -1.4376    0.9966   -0.0252 N   0  0  0  0  0  0  0  0  0  0  0  0
   -2.3622    1.9828   -0.1028 C   0  0  0  0  0  0  0  0  0  0  0  0
   -1.9487   -0.3351    0.0859 C   0  0  0  0  0  0  0  0  0  0  0  0
   -3.1318   -0.5351    0.1834 O   0  0  0  0  0  0  0  0  0  0  0  0
   -1.0213   -1.3705    0.0532 N   0  0  0  0  0  0  0  0  0  0  0  0
   -1.5028   -2.7371    0.0889 C   0  0  0  0  0  0  0  0  0  0  0  0
    3.5577    1.3304    0.9559 H   0  0  0  0  0  0  0  0  0  0  0  0
    3.9065    1.0408   -0.7584 H   0  0  0  0  0  0  0  0  0  0  0  0
    2.5902    2.1409   -0.2888 H   0  0  0  0  0  0  0  0  0  0  0  0
    3.5021   -1.5674   -0.0775 H   0  0  0  0  0  0  0  0  0  0  0  0
   -0.4365    3.1398    0.2679 H   0  0  0  0  0  0  0  0  0  0  0  0
   -2.1077    2.9642   -0.4428 H   0  0  0  0  0  0  0  0  0  0  0  0
   -3.3831    1.7101    0.0425 H   0  0  0  0  0  0  0  0  0  0  0  0
   -1.1405   -3.2459    0.9831 H   0  0  0  0  0  0  0  0  0  0  0  0
   -1.1812   -3.2746   -0.8037 H   0  0  0  0  0  0  0  0  0  0  0  0
   -2.5908   -2.7053    0.1145 H   0  0  0  0  0  0  0  0  0  0  0  0
    1.3469   -2.9427   -0.0346 H   0  0  0  0  0  0  0  0  0  0  0  0
  1  2  1  0  0  0  0
  2  3  4  0  0  0  0
  3  4  4  0  0  0  0
  4  5  1  0  0  0  0
  2  6  1  0  0  0  0
  5  6  4  0  0  0  0
  6  7  4  0  0  0  0
  7  8  1  0  0  0  0
  7  9  1  0  0  0  0
  9 10  4  0  0  0  0
  9 11  1  0  0  0  0
 11 12  2  0  0  0  0
  5 13  1  0  0  0  0
 11 13  1  0  0  0  0
 13 14  1  0  0  0  0
  1 15  1  0  0  0  0
  1 16  1  0  0  0  0
  1 17  1  0  0  0  0
  3 18  1  0  0  0  0
  8 19  1  0  0  0  0
 10 20  1  0  0  0  0
 10 21  1  0  0  0  0
 14 22  1  0  0  0  0
 14 23  1  0  0  0  0
 14 24  1  0  0  0  0
  4 25  1  0  0  0  0
M  CHG  1   1   1
M  END
