 xtb: 6.6.1 (8d0f1dd)
          06052419573D

 25 25  0     0  0            999 V2000
    2.4730    2.1216    0.0108 C   0  0  0  0  0  0  0  0  0  0  0  0
    2.3153   -0.6556    0.0140 N   0  0  0  0  0  0  0  0  0  0  0  0
    3.3575   -1.1757   -0.0302 C   0  0  0  0  0  0  0  0  0  0  0  0
    0.5617   -2.8675   -0.0089 N   0  0  0  0  0  0  0  0  0  0  0  0
    0.1657   -1.6760   -0.0028 C   0  0  0  0  0  0  0  0  0  0  0  0
    1.0245   -0.4412    0.0023 C   0  0  0  0  0  0  0  0  0  0  0  0
    0.4331    0.8275   -0.0010 C   0  0  0  0  0  0  0  0  0  0  0  0
    1.0590    1.9877   -0.0013 O   0  0  0  0  0  0  0  0  0  0  0  0
   -0.9038    0.9171   -0.0019 N   0  0  0  0  0  0  0  0  0  0  0  0
   -1.5889    2.2023   -0.0043 C   0  0  0  0  0  0  0  0  0  0  0  0
   -1.7805   -0.2040    0.0019 C   0  0  0  0  0  0  0  0  0  0  0  0
   -2.9633   -0.0227    0.0047 O   0  0  0  0  0  0  0  0  0  0  0  0
   -1.1860   -1.4332    0.0024 N   0  0  0  0  0  0  0  0  0  0  0  0
   -2.0538   -2.6026    0.0051 C   0  0  0  0  0  0  0  0  0  0  0  0
    2.9080    1.6873    0.9134 H   0  0  0  0  0  0  0  0  0  0  0  0
    2.9227    1.6918   -0.8865 H   0  0  0  0  0  0  0  0  0  0  0  0
    2.6297    3.2015    0.0145 H   0  0  0  0  0  0  0  0  0  0  0  0
    4.3460   -1.5384    0.0099 H   0  0  0  0  0  0  0  0  0  0  0  0
   -0.8678    3.0113    0.0069 H   0  0  0  0  0  0  0  0  0  0  0  0
   -2.2173    2.2694   -0.8921 H   0  0  0  0  0  0  0  0  0  0  0  0
   -2.2370    2.2619    0.8698 H   0  0  0  0  0  0  0  0  0  0  0  0
   -1.8443   -3.2069    0.8857 H   0  0  0  0  0  0  0  0  0  0  0  0
   -1.8569   -3.2021   -0.8815 H   0  0  0  0  0  0  0  0  0  0  0  0
   -3.0863   -2.2619    0.0132 H   0  0  0  0  0  0  0  0  0  0  0  0
    1.5502   -3.0732   -0.0130 H   0  0  0  0  0  0  0  0  0  0  0  0
  2  3  3  0  0  0  0
  4  5  2  0  0  0  0
  2  6  4  0  0  0  0
  5  6  1  0  0  0  0
  6  7  4  0  0  0  0
  1  8  1  0  0  0  0
  7  8  1  0  0  0  0
  7  9  4  0  0  0  0
  9 10  1  0  0  0  0
  9 11  1  0  0  0  0
 11 12  2  0  0  0  0
  5 13  1  0  0  0  0
 11 13  1  0  0  0  0
 13 14  1  0  0  0  0
  1 15  1  0  0  0  0
  1 16  1  0  0  0  0
  1 17  1  0  0  0  0
  3 18  1  0  0  0  0
 10 19  1  0  0  0  0
 10 20  1  0  0  0  0
 10 21  1  0  0  0  0
 14 22  1  0  0  0  0
 14 23  1  0  0  0  0
 14 24  1  0  0  0  0
  4 25  1  0  0  0  0
M  CHG  1   1   1
M  END
