          71
 
N             -1.75185092        2.68279717        2.50798970
C             -1.72986000        2.06968968        1.42020507
C             -2.88502765        1.99292336        0.45959988
C             -3.43588516        0.57599765        0.42061901
C             -4.41907881        0.24330315       -0.51232089
C             -4.96305858       -1.03041225       -0.56943939
O             -5.92574396       -1.42947592       -1.41804822
C             -6.50893111       -0.49744024       -2.29900487
C             -4.49574829       -2.03274702        0.32876642
O             -5.06848506       -3.24012283        0.19256027
C             -4.69490095       -4.28631330        1.05915490
C             -3.51821949       -1.69319485        1.25294363
C             -3.00287824       -0.40572168        1.30152470
C             -2.31173549        2.36931261       -0.93257833
C             -1.44243002        1.28042284       -1.59015855
C             -0.08782533        1.15047881       -1.00074639
N              0.48006564        0.02677884       -0.57147187
C              1.89607049        0.09394676       -0.22494396
C              2.77738860       -0.30894692       -1.41739641
C              4.22353079       -0.22361030       -1.01656616
C              4.92147655        0.96902981       -1.14275881
C              6.23788789        1.07088495       -0.72315880
C              6.88747197       -0.02089057       -0.16164055
O              8.15333793       -0.03675170        0.28572718
C              8.93978825        1.12887354        0.18512830
C              6.18091599       -1.25178537       -0.03227146
O              6.88500051       -2.25770783        0.51505917
C              6.28821550       -3.52485303        0.66270563
C              4.86245136       -1.32697093       -0.45812844
C             -0.09919798       -1.16220024       -0.46674937
C             -4.04779485        2.96016715        0.83714566
C             -4.70001176        2.55935025        2.15797654
C             -3.61652859        4.42254268        0.89439898
H             -4.77181851        0.99258329       -1.20132133
H             -6.97118381        0.33156165       -1.75447513
H             -7.27789895       -1.04761576       -2.83790889
H             -5.77740347       -0.10700696       -3.01316603
H             -4.89673196       -4.03226917        2.10388425
H             -5.30763242       -5.13785758        0.76955987
H             -3.63782543       -4.54421823        0.94220369
H             -3.15385597       -2.42749905        1.95269451
H             -2.26342632       -0.17398764        2.05201118
H             -3.14303139        2.58541586       -1.60295981
H             -1.72277147        3.28252345       -0.83481082
H             -1.97023992        0.32971910       -1.58792944
H             -1.31002402        1.57539195       -2.63816528
H             -0.83228428        1.56288746        1.02662644
H              0.54642807        2.02342507       -1.03665392
H              2.09128447       -0.57804988        0.61346456
H              2.14769682        1.11063577        0.08406571
H              2.57657722        0.36106988       -2.25478548
H              2.52070610       -1.32348946       -1.72485386
H              4.44246029        1.83061789       -1.58203428
H              6.75491230        2.00925741       -0.83874902
H              8.51255847        1.95115267        0.76699073
H              9.06087948        1.44121270       -0.85614208
H              9.91105203        0.86206549        0.59741535
H              7.05525859       -4.15884678        1.10319652
H              5.42387317       -3.48491203        1.33299932
H              5.98532719       -3.94008873       -0.30310154
H              4.32136794       -2.25588905       -0.36941469
H             -1.14314542       -1.29464062       -0.65966059
H              0.46752091       -1.96920746       -0.03302255
H             -4.80163432        2.86371989        0.04772898
H             -3.98641711        2.65850235        2.97016087
H             -5.05726394        1.53272543        2.12545146
H             -5.54626123        3.21087786        2.36005079
H             -2.84021904        4.55936592        1.64132922
H             -3.25563294        4.77598427       -0.06780004
H             -4.46840314        5.03585121        1.17641254
H             -0.90422829        2.70286984        3.06637913
