 xtb: 6.6.1 (8d0f1dd)
          06052420003D

 25 26  0     0  0            999 V2000
    3.2390    0.9830    0.0184 C   0  0  0  0  0  0  0  0  0  0  0  0
    3.4109   -0.3684    0.0320 N   0  0  0  0  0  0  0  0  0  0  0  0
    2.6629   -1.3697    0.0267 C   0  0  0  0  0  0  0  0  0  0  0  0
    1.2815   -1.5164    0.0007 N   0  0  0  0  0  0  0  0  0  0  0  0
    0.1850   -0.7117   -0.0010 C   0  0  0  0  0  0  0  0  0  0  0  0
   -0.0442    0.6859    0.0040 C   0  0  0  0  0  0  0  0  0  0  0  0
    0.7806    1.7883    0.0128 C   0  0  0  0  0  0  0  0  0  0  0  0
    0.7630    2.9684    0.0246 O   0  0  0  0  0  0  0  0  0  0  0  0
   -1.4374    0.8638   -0.0102 N   0  0  0  0  0  0  0  0  0  0  0  0
   -2.1803    2.0992   -0.0098 C   0  0  0  0  0  0  0  0  0  0  0  0
   -2.0657   -0.3468   -0.0191 C   0  0  0  0  0  0  0  0  0  0  0  0
   -3.2377   -0.5848   -0.0305 O   0  0  0  0  0  0  0  0  0  0  0  0
   -1.0313   -1.3100   -0.0126 N   0  0  0  0  0  0  0  0  0  0  0  0
   -1.3311   -2.7191   -0.0123 C   0  0  0  0  0  0  0  0  0  0  0  0
    3.6742    1.4443    0.9079 H   0  0  0  0  0  0  0  0  0  0  0  0
    3.6846    1.4272   -0.8757 H   0  0  0  0  0  0  0  0  0  0  0  0
    2.1011    1.3042    0.0082 H   0  0  0  0  0  0  0  0  0  0  0  0
    3.1590   -2.3337    0.0398 H   0  0  0  0  0  0  0  0  0  0  0  0
   -1.5071    2.9511   -0.0215 H   0  0  0  0  0  0  0  0  0  0  0  0
   -2.8277    2.1312   -0.8876 H   0  0  0  0  0  0  0  0  0  0  0  0
   -2.8119    2.1439    0.8791 H   0  0  0  0  0  0  0  0  0  0  0  0
   -0.9479   -3.2070    0.8860 H   0  0  0  0  0  0  0  0  0  0  0  0
   -0.9464   -3.2090   -0.9087 H   0  0  0  0  0  0  0  0  0  0  0  0
   -2.4194   -2.8011   -0.0134 H   0  0  0  0  0  0  0  0  0  0  0  0
    1.0067   -2.4946   -0.0066 H   0  0  0  0  0  0  0  0  0  0  0  0
  1  2  1  0  0  0  0
  2  3  2  0  0  0  0
  3  4  1  0  0  0  0
  4  5  1  0  0  0  0
  5  6  4  0  0  0  0
  6  7  4  0  0  0  0
  7  8  2  0  0  0  0
  6  9  1  0  0  0  0
  9 10  1  0  0  0  0
  9 11  1  0  0  0  0
 11 12  2  0  0  0  0
  5 13  4  0  0  0  0
 11 13  1  0  0  0  0
 13 14  1  0  0  0  0
  1 15  1  0  0  0  0
  1 16  1  0  0  0  0
  1 17  1  0  0  0  0
  7 17  1  0  0  0  0
  3 18  1  0  0  0  0
 10 19  1  0  0  0  0
 10 20  1  0  0  0  0
 10 21  1  0  0  0  0
 14 22  1  0  0  0  0
 14 23  1  0  0  0  0
 14 24  1  0  0  0  0
  4 25  1  0  0  0  0
M  CHG  1   1   1
M  END
