 xtb: 6.6.1 (8d0f1dd)
          06052420003D

 25 25  0     0  0            999 V2000
    3.1030    1.4269   -0.0848 C   0  0  0  0  0  0  0  0  0  0  0  0
    2.2655    0.3145   -0.0821 N   0  0  0  0  0  0  0  0  0  0  0  0
    2.2857   -2.5047    0.1059 C   0  0  0  0  0  0  0  0  0  0  0  0
    1.1332   -2.1481   -0.2596 N   0  0  0  0  0  0  0  0  0  0  0  0
    0.3848   -1.0840   -0.0686 C   0  0  0  0  0  0  0  0  0  0  0  0
    0.9902    0.2315   -0.0727 C   0  0  0  0  0  0  0  0  0  0  0  0
    0.0673    1.4139   -0.0552 C   0  0  0  0  0  0  0  0  0  0  0  0
    0.4895    2.5470   -0.0744 O   0  0  0  0  0  0  0  0  0  0  0  0
   -1.2700    1.1193   -0.0039 N   0  0  0  0  0  0  0  0  0  0  0  0
   -2.2208    2.2240    0.0307 C   0  0  0  0  0  0  0  0  0  0  0  0
   -1.8399   -0.1432    0.0249 C   0  0  0  0  0  0  0  0  0  0  0  0
   -3.0258   -0.3074    0.0806 O   0  0  0  0  0  0  0  0  0  0  0  0
   -0.9520   -1.2267   -0.0122 N   0  0  0  0  0  0  0  0  0  0  0  0
   -1.5167   -2.5610    0.0160 C   0  0  0  0  0  0  0  0  0  0  0  0
    3.7673    1.3652    0.7828 H   0  0  0  0  0  0  0  0  0  0  0  0
    3.7392    1.3703   -0.9742 H   0  0  0  0  0  0  0  0  0  0  0  0
    2.5622    2.3832   -0.0716 H   0  0  0  0  0  0  0  0  0  0  0  0
    2.7656   -2.1107    0.9971 H   0  0  0  0  0  0  0  0  0  0  0  0
   -1.6664    3.1583    0.0669 H   0  0  0  0  0  0  0  0  0  0  0  0
   -2.8505    2.1942   -0.8586 H   0  0  0  0  0  0  0  0  0  0  0  0
   -2.8603    2.1258    0.9076 H   0  0  0  0  0  0  0  0  0  0  0  0
   -1.3482   -3.0286    0.9869 H   0  0  0  0  0  0  0  0  0  0  0  0
   -1.0452   -3.1679   -0.7571 H   0  0  0  0  0  0  0  0  0  0  0  0
   -2.5879   -2.4835   -0.1618 H   0  0  0  0  0  0  0  0  0  0  0  0
    2.7907   -3.2900   -0.4313 H   0  0  0  0  0  0  0  0  0  0  0  0
  1  2  1  0  0  0  0
  3  4  2  0  0  0  0
  4  5  4  0  0  0  0
  2  6  2  0  0  0  0
  5  6  1  0  0  0  0
  6  7  1  0  0  0  0
  7  8  2  0  0  0  0
  7  9  1  0  0  0  0
  9 10  1  0  0  0  0
  9 11  1  0  0  0  0
 11 12  2  0  0  0  0
  5 13  4  0  0  0  0
 11 13  1  0  0  0  0
 13 14  1  0  0  0  0
  1 15  1  0  0  0  0
  1 16  1  0  0  0  0
  1 17  1  0  0  0  0
  3 18  1  0  0  0  0
 10 19  1  0  0  0  0
 10 20  1  0  0  0  0
 10 21  1  0  0  0  0
 14 22  1  0  0  0  0
 14 23  1  0  0  0  0
 14 24  1  0  0  0  0
  3 25  1  0  0  0  0
M  CHG  1   1   1
M  END
