 xtb: 6.6.1 (8d0f1dd)
          04062411133D

 72 72  0     0  0            999 V2000
   -1.6015    2.6054    2.0852 N   0  0  0  0  0  0  0  0  0  0  0  0
   -1.6858    2.0708    0.9713 C   0  0  0  0  0  0  0  0  0  0  0  0
   -2.9220    1.8818    0.1489 C   0  0  0  0  0  0  0  0  0  0  0  0
   -3.4325    0.4540    0.2975 C   0  0  0  0  0  0  0  0  0  0  0  0
   -4.4466   -0.0031   -0.5458 C   0  0  0  0  0  0  0  0  0  0  0  0
   -4.9352   -1.2964   -0.4533 C   0  0  0  0  0  0  0  0  0  0  0  0
   -5.9050   -1.8214   -1.2256 O   0  0  0  0  0  0  0  0  0  0  0  0
   -6.5261   -1.0192   -2.2028 C   0  0  0  0  0  0  0  0  0  0  0  0
   -4.3946   -2.1810    0.5219 C   0  0  0  0  0  0  0  0  0  0  0  0
   -4.9287   -3.4158    0.5391 O   0  0  0  0  0  0  0  0  0  0  0  0
   -4.5027   -4.3387    1.5146 C   0  0  0  0  0  0  0  0  0  0  0  0
   -3.3877   -1.7177    1.3553 C   0  0  0  0  0  0  0  0  0  0  0  0
   -2.9127   -0.4183    1.2422 C   0  0  0  0  0  0  0  0  0  0  0  0
   -2.4572    2.0930   -1.3099 C   0  0  0  0  0  0  0  0  0  0  0  0
   -1.5182    0.9784   -1.7707 C   0  0  0  0  0  0  0  0  0  0  0  0
   -0.2773    0.9406   -0.9656 C   0  0  0  0  0  0  0  0  0  0  0  0
    0.3876   -0.1470   -0.7277 N   0  0  0  0  0  0  0  0  0  0  0  0
    1.7225   -0.0470   -0.1601 C   0  0  0  0  0  0  0  0  0  0  0  0
    2.7783   -0.3266   -1.2443 C   0  0  0  0  0  0  0  0  0  0  0  0
    4.1768   -0.0986   -0.7459 C   0  0  0  0  0  0  0  0  0  0  0  0
    4.7929    1.1337   -0.9133 C   0  0  0  0  0  0  0  0  0  0  0  0
    6.1013    1.3361   -0.5063 C   0  0  0  0  0  0  0  0  0  0  0  0
    6.8237    0.3083    0.0863 C   0  0  0  0  0  0  0  0  0  0  0  0
    8.1026    0.3787    0.4905 O   0  0  0  0  0  0  0  0  0  0  0  0
    8.8397    1.5560    0.2513 C   0  0  0  0  0  0  0  0  0  0  0  0
    6.1902   -0.9512    0.2916 C   0  0  0  0  0  0  0  0  0  0  0  0
    6.9585   -1.8853    0.8806 O   0  0  0  0  0  0  0  0  0  0  0  0
    6.4392   -3.1754    1.1005 C   0  0  0  0  0  0  0  0  0  0  0  0
    4.8801   -1.1296   -0.1287 C   0  0  0  0  0  0  0  0  0  0  0  0
   -0.0331   -1.4931   -1.0974 C   0  0  0  0  0  0  0  0  0  0  0  0
   -4.0653    2.8688    0.5342 C   0  0  0  0  0  0  0  0  0  0  0  0
   -4.6465    2.5360    1.9055 C   0  0  0  0  0  0  0  0  0  0  0  0
   -3.6314    4.3302    0.5021 C   0  0  0  0  0  0  0  0  0  0  0  0
   -4.8675    0.6651   -1.2785 H   0  0  0  0  0  0  0  0  0  0  0  0
   -7.0261   -0.1555   -1.7547 H   0  0  0  0  0  0  0  0  0  0  0  0
   -7.2685   -1.6591   -2.6757 H   0  0  0  0  0  0  0  0  0  0  0  0
   -5.8101   -0.6790   -2.9577 H   0  0  0  0  0  0  0  0  0  0  0  0
   -4.6880   -3.9658    2.5261 H   0  0  0  0  0  0  0  0  0  0  0  0
   -5.0956   -5.2355    1.3458 H   0  0  0  0  0  0  0  0  0  0  0  0
   -3.4411   -4.5802    1.4023 H   0  0  0  0  0  0  0  0  0  0  0  0
   -2.9667   -2.3626    2.1094 H   0  0  0  0  0  0  0  0  0  0  0  0
   -2.1394   -0.0895    1.9186 H   0  0  0  0  0  0  0  0  0  0  0  0
   -3.3086    2.1780   -1.9828 H   0  0  0  0  0  0  0  0  0  0  0  0
   -1.8800    3.0562   -1.3676 H   0  0  0  0  0  0  0  0  0  0  0  0
   -2.0602    0.0236   -1.7927 H   0  0  0  0  0  0  0  0  0  0  0  0
   -1.1976    1.1958   -2.7953 H   0  0  0  0  0  0  0  0  0  0  0  0
   -0.7761    1.6861    0.3564 H   0  0  0  0  0  0  0  0  0  0  0  0
   -0.8809    4.2145   -1.3811 H   0  0  0  0  0  0  0  0  0  0  0  0
    1.8281   -0.7579    0.6634 H   0  0  0  0  0  0  0  0  0  0  0  0
    1.8590    0.9649    0.2240 H   0  0  0  0  0  0  0  0  0  0  0  0
    2.5814    0.3397   -2.0861 H   0  0  0  0  0  0  0  0  0  0  0  0
    2.6798   -1.3574   -1.5883 H   0  0  0  0  0  0  0  0  0  0  0  0
    4.2560    1.9428   -1.3839 H   0  0  0  0  0  0  0  0  0  0  0  0
    6.5575    2.2993   -0.6647 H   0  0  0  0  0  0  0  0  0  0  0  0
    8.4238    2.4079    0.7971 H   0  0  0  0  0  0  0  0  0  0  0  0
    8.8805    1.7905   -0.8164 H   0  0  0  0  0  0  0  0  0  0  0  0
    9.8443    1.3500    0.6152 H   0  0  0  0  0  0  0  0  0  0  0  0
    7.2471   -3.7404    1.5611 H   0  0  0  0  0  0  0  0  0  0  0  0
    5.5815   -3.1514    1.7799 H   0  0  0  0  0  0  0  0  0  0  0  0
    6.1506   -3.6573    0.1614 H   0  0  0  0  0  0  0  0  0  0  0  0
    4.4006   -2.0871    0.0027 H   0  0  0  0  0  0  0  0  0  0  0  0
    0.1024   -1.6653   -2.1648 H   0  0  0  0  0  0  0  0  0  0  0  0
   -1.0843   -1.6319   -0.8492 H   0  0  0  0  0  0  0  0  0  0  0  0
    0.5548   -2.2198   -0.5424 H   0  0  0  0  0  0  0  0  0  0  0  0
   -4.8530    2.7311   -0.2151 H   0  0  0  0  0  0  0  0  0  0  0  0
   -3.8791    2.6307    2.6681 H   0  0  0  0  0  0  0  0  0  0  0  0
   -5.0464    1.5254    1.9328 H   0  0  0  0  0  0  0  0  0  0  0  0
   -5.4505    3.2292    2.1382 H   0  0  0  0  0  0  0  0  0  0  0  0
   -2.8877    4.5228    1.2700 H   0  0  0  0  0  0  0  0  0  0  0  0
   -3.2205    4.6135   -0.4624 H   0  0  0  0  0  0  0  0  0  0  0  0
   -4.4927    4.9632    0.6994 H   0  0  0  0  0  0  0  0  0  0  0  0
   -0.7035    2.7228    2.5377 H   0  0  0  0  0  0  0  0  0  0  0  0
  1  2  2  0  0  0  0
  2  3  1  0  0  0  0
  3  4  1  0  0  0  0
  4  5  4  0  0  0  0
  5  6  4  0  0  0  0
  6  7  1  0  0  0  0
  7  8  1  0  0  0  0
  6  9  4  0  0  0  0
  9 10  1  0  0  0  0
 10 11  1  0  0  0  0
  9 12  4  0  0  0  0
  4 13  4  0  0  0  0
 12 13  4  0  0  0  0
  3 14  1  0  0  0  0
 14 15  1  0  0  0  0
 15 16  1  0  0  0  0
 16 17  2  0  0  0  0
 17 18  1  0  0  0  0
 18 19  1  0  0  0  0
 19 20  1  0  0  0  0
 20 21  4  0  0  0  0
 21 22  4  0  0  0  0
 22 23  4  0  0  0  0
 23 24  1  0  0  0  0
 24 25  1  0  0  0  0
 23 26  4  0  0  0  0
 26 27  1  0  0  0  0
 27 28  1  0  0  0  0
 20 29  4  0  0  0  0
 26 29  4  0  0  0  0
 17 30  1  0  0  0  0
  3 31  1  0  0  0  0
 31 32  1  0  0  0  0
 31 33  1  0  0  0  0
  5 34  1  0  0  0  0
  8 35  1  0  0  0  0
  8 36  1  0  0  0  0
  8 37  1  0  0  0  0
 11 38  1  0  0  0  0
 11 39  1  0  0  0  0
 11 40  1  0  0  0  0
 12 41  1  0  0  0  0
 13 42  1  0  0  0  0
 14 43  1  0  0  0  0
 14 44  1  0  0  0  0
 15 45  1  0  0  0  0
 15 46  1  0  0  0  0
  2 47  1  0  0  0  0
 18 49  1  0  0  0  0
 18 50  1  0  0  0  0
 19 51  1  0  0  0  0
 19 52  1  0  0  0  0
 21 53  1  0  0  0  0
 22 54  1  0  0  0  0
 25 55  1  0  0  0  0
 25 56  1  0  0  0  0
 25 57  1  0  0  0  0
 28 58  1  0  0  0  0
 28 59  1  0  0  0  0
 28 60  1  0  0  0  0
 29 61  1  0  0  0  0
 30 62  1  0  0  0  0
 30 63  1  0  0  0  0
 30 64  1  0  0  0  0
 31 65  1  0  0  0  0
 32 66  1  0  0  0  0
 32 67  1  0  0  0  0
 32 68  1  0  0  0  0
 33 69  1  0  0  0  0
 33 70  1  0  0  0  0
 33 71  1  0  0  0  0
  1 72  1  0  0  0  0
M  CHG  1   1   1
M  END
