          18
 
C              3.59530749        0.76360705       -0.52840387
N              2.57205442       -0.21943791       -0.31478054
C              2.57550125       -1.47748127       -0.70448734
N              1.45387492       -2.09931488       -0.32911853
C              0.60869755       -1.20865400        0.37659585
C              1.37012445        0.04184120        0.36530057
C              0.98576007        1.22901408        0.82087537
O              0.66643032        2.24709707        1.25621474
N             -0.50684778       -1.40334512        0.91591649
C             -1.25053954       -2.61628371        0.92573919
H              3.89813185        1.20143105        0.42454403
H              4.45985631        0.29874301       -0.99880654
H              3.22298400        1.56231357       -1.17336098
H              3.37789606       -1.93968269       -1.25099818
H             -0.63787423       -3.52238813        0.87411299
H             -1.95207673       -2.61256781        0.08794192
H             -1.83333789       -2.62967048        1.84640309
H              1.22402119       -3.05822766       -0.53726386
