 xtb: 6.6.1 (8d0f1dd)
          06052419593D

 25 26  0     0  0            999 V2000
    3.2088    0.9549    0.1318 C   0  0  0  0  0  0  0  0  0  0  0  0
    2.2858   -0.0122    0.0705 N   0  0  0  0  0  0  0  0  0  0  0  0
    2.5355   -1.3574    0.0208 C   0  0  0  0  0  0  0  0  0  0  0  0
    1.3484   -2.0391   -0.0457 N   0  0  0  0  0  0  0  0  0  0  0  0
    0.3394   -1.1398   -0.0360 C   0  0  0  0  0  0  0  0  0  0  0  0
    0.8999    0.1491    0.0362 C   0  0  0  0  0  0  0  0  0  0  0  0
    0.0649    1.2500    0.0571 C   0  0  0  0  0  0  0  0  0  0  0  0
    2.8032    2.2361    0.1936 O   0  0  0  0  0  0  0  0  0  0  0  0
   -1.2852    1.0157    0.0035 N   0  0  0  0  0  0  0  0  0  0  0  0
   -2.1755    2.1596    0.0256 C   0  0  0  0  0  0  0  0  0  0  0  0
   -1.8734   -0.2409   -0.0647 C   0  0  0  0  0  0  0  0  0  0  0  0
   -3.0675   -0.3994   -0.1038 O   0  0  0  0  0  0  0  0  0  0  0  0
   -1.0010   -1.3433   -0.0887 N   0  0  0  0  0  0  0  0  0  0  0  0
   -1.5528   -2.6780   -0.1682 C   0  0  0  0  0  0  0  0  0  0  0  0
    3.5409    2.8461    0.2869 H   0  0  0  0  0  0  0  0  0  0  0  0
    4.2503    0.6835    0.1343 H   0  0  0  0  0  0  0  0  0  0  0  0
    0.3980    2.2694    0.1106 H   0  0  0  0  0  0  0  0  0  0  0  0
    3.5044   -1.8023    0.0308 H   0  0  0  0  0  0  0  0  0  0  0  0
   -1.9624    2.8173   -0.8171 H   0  0  0  0  0  0  0  0  0  0  0  0
   -3.2011    1.8018   -0.0457 H   0  0  0  0  0  0  0  0  0  0  0  0
   -2.0522    2.7152    0.9558 H   0  0  0  0  0  0  0  0  0  0  0  0
   -1.2668   -3.2622    0.7076 H   0  0  0  0  0  0  0  0  0  0  0  0
   -1.2125   -3.1773   -1.0766 H   0  0  0  0  0  0  0  0  0  0  0  0
   -2.6377   -2.5862   -0.1968 H   0  0  0  0  0  0  0  0  0  0  0  0
    1.2690   -3.0423   -0.0908 H   0  0  0  0  0  0  0  0  0  0  0  0
  1  2  4  0  0  0  0
  2  3  1  0  0  0  0
  3  4  1  0  0  0  0
  4  5  4  0  0  0  0
  2  6  1  0  0  0  0
  5  6  4  0  0  0  0
  6  7  4  0  0  0  0
  1  8  1  0  0  0  0
  7  9  1  0  0  0  0
  9 10  1  0  0  0  0
  9 11  1  0  0  0  0
 11 12  2  0  0  0  0
  5 13  1  0  0  0  0
 11 13  1  0  0  0  0
 13 14  1  0  0  0  0
  8 15  1  0  0  0  0
  1 16  1  0  0  0  0
  7 17  1  0  0  0  0
  3 18  1  0  0  0  0
 10 19  1  0  0  0  0
 10 20  1  0  0  0  0
 10 21  1  0  0  0  0
 14 22  1  0  0  0  0
 14 23  1  0  0  0  0
 14 24  1  0  0  0  0
  4 25  1  0  0  0  0
M  CHG  1   1   1
M  END
