          21
 
N              2.24224417       -0.42865508       -0.02415373
C              2.34450974       -1.72332472       -0.01675142
N              1.12028516       -2.33902336       -0.00671261
C              0.19620784       -1.34598011       -0.00789616
C              0.91786222       -0.14439257       -0.01937172
C              0.23327193        1.12765581       -0.01651357
O              0.75367694        2.22119901       -0.02453918
N             -1.15392182        0.97341187        0.00075519
C             -1.96778057        2.17793518        0.01506491
C             -1.87519866       -0.20865464        0.00377434
O             -3.07723993       -0.21977427        0.01081297
N             -1.14564850       -1.40931356        0.00040515
C             -1.86238367       -2.66664638        0.00366459
H              3.27187653       -2.25988089       -0.01805818
H             -1.30346506        3.03858873        0.01127784
H             -2.61833165        2.19783285       -0.85976588
H             -2.59737876        2.18867326        0.90540349
H             -1.60899382       -3.24627696        0.89231231
H             -1.62569689       -3.24113577       -0.89296140
H             -2.92844599       -2.44196867        0.01420556
H              0.95231360       -3.33399716        0.00357511
