          21
 
C              3.39364981        1.53546713       -0.00081842
N              2.54690023        0.37084015        0.00026196
C              2.93726847       -0.89728153        0.00320539
N              1.87068409       -1.71437273        0.00107056
C              0.73736702       -0.94128492       -0.00311076
C              1.18025506        0.38894403       -0.00407679
C              0.21682822        1.46897869       -0.00135603
O              0.49074237        2.65323392        0.00111142
N             -1.07987600        0.98732326       -0.00024691
C             -2.15990389        1.95217807        0.00808414
C             -1.47447550       -0.37982912       -0.00476764
O             -2.65461485       -0.64843854       -0.00687546
N             -0.50979998       -1.33367947       -0.00478731
H              4.03002415        1.54214580        0.88434694
H              4.02619127        1.54308017       -0.88872799
H              2.76220435        2.42407595        0.00077345
H              3.95995928       -1.22382877        0.00729435
H             -1.72673265        2.95063870        0.02708551
H             -2.77924321        1.82440171       -0.88111728
H             -2.79046013        1.79399266        0.88423082
H              1.88176498       -2.72488253        0.00340814
