 xtb: 6.6.1 (8d0f1dd)
          04062411133D

 72 73  0     0  0            999 V2000
   -1.9704    3.3487    2.2234 N   0  0  0  0  0  0  0  0  0  0  0  0
   -1.8502    2.4923    1.3214 C   0  0  0  0  0  0  0  0  0  0  0  0
   -2.9474    2.1405    0.3489 C   0  0  0  0  0  0  0  0  0  0  0  0
   -3.1641    0.6497    0.3574 C   0  0  0  0  0  0  0  0  0  0  0  0
   -3.8834    0.0356   -0.6753 C   0  0  0  0  0  0  0  0  0  0  0  0
   -4.0157   -1.3291   -0.7555 C   0  0  0  0  0  0  0  0  0  0  0  0
   -4.6936   -1.9943   -1.6770 O   0  0  0  0  0  0  0  0  0  0  0  0
   -5.4335   -1.2946   -2.6579 C   0  0  0  0  0  0  0  0  0  0  0  0
   -3.2762   -2.2397    0.2016 C   0  0  0  0  0  0  0  0  0  0  0  0
   -4.1535   -3.3251    0.4547 O   0  0  0  0  0  0  0  0  0  0  0  0
   -3.7881   -4.2685    1.4333 C   0  0  0  0  0  0  0  0  0  0  0  0
   -2.8081   -1.4968    1.4126 C   0  0  0  0  0  0  0  0  0  0  0  0
   -2.7033   -0.1497    1.4297 C   0  0  0  0  0  0  0  0  0  0  0  0
   -2.4377    2.6143   -1.0441 C   0  0  0  0  0  0  0  0  0  0  0  0
   -1.4544    1.6760   -1.7566 C   0  0  0  0  0  0  0  0  0  0  0  0
   -0.1305    1.5381   -1.0903 C   0  0  0  0  0  0  0  0  0  0  0  0
    0.3574    0.4114   -0.8211 N   0  0  0  0  0  0  0  0  0  0  0  0
    1.6754    0.2844   -0.2838 C   0  0  0  0  0  0  0  0  0  0  0  0
    2.6302   -0.2365   -1.3780 C   0  0  0  0  0  0  0  0  0  0  0  0
    4.0580   -0.1191   -0.9345 C   0  0  0  0  0  0  0  0  0  0  0  0
    4.7719    1.0478   -1.1817 C   0  0  0  0  0  0  0  0  0  0  0  0
    6.0875    1.1816   -0.7724 C   0  0  0  0  0  0  0  0  0  0  0  0
    6.7251    0.1472   -0.0980 C   0  0  0  0  0  0  0  0  0  0  0  0
    7.9964    0.1588    0.3329 O   0  0  0  0  0  0  0  0  0  0  0  0
    8.7987    1.2927    0.0942 C   0  0  0  0  0  0  0  0  0  0  0  0
    5.9989   -1.0495    0.1729 C   0  0  0  0  0  0  0  0  0  0  0  0
    6.6908   -1.9947    0.8327 O   0  0  0  0  0  0  0  0  0  0  0  0
    6.0746   -3.2245    1.1351 C   0  0  0  0  0  0  0  0  0  0  0  0
    4.6807   -1.1577   -0.2486 C   0  0  0  0  0  0  0  0  0  0  0  0
   -1.9970   -2.7157   -0.5527 C   0  0  0  0  0  0  0  0  0  0  0  0
   -4.3095    2.8358    0.6683 C   0  0  0  0  0  0  0  0  0  0  0  0
   -4.8418    2.4160    2.0359 C   0  0  0  0  0  0  0  0  0  0  0  0
   -4.2429    4.3576    0.5845 C   0  0  0  0  0  0  0  0  0  0  0  0
   -4.3577    0.6577   -1.4182 H   0  0  0  0  0  0  0  0  0  0  0  0
   -6.1942   -0.6579   -2.2005 H   0  0  0  0  0  0  0  0  0  0  0  0
   -5.9178   -2.0590   -3.2624 H   0  0  0  0  0  0  0  0  0  0  0  0
   -4.7782   -0.6907   -3.2919 H   0  0  0  0  0  0  0  0  0  0  0  0
   -3.9270   -3.8751    2.4484 H   0  0  0  0  0  0  0  0  0  0  0  0
   -4.4669   -5.1083    1.2857 H   0  0  0  0  0  0  0  0  0  0  0  0
   -2.7571   -4.6195    1.3163 H   0  0  0  0  0  0  0  0  0  0  0  0
   -2.4671   -2.0892    2.2461 H   0  0  0  0  0  0  0  0  0  0  0  0
   -2.2903    0.3385    2.3007 H   0  0  0  0  0  0  0  0  0  0  0  0
   -3.2983    2.7526   -1.6991 H   0  0  0  0  0  0  0  0  0  0  0  0
   -1.9644    3.5893   -0.9153 H   0  0  0  0  0  0  0  0  0  0  0  0
   -1.8814    0.6824   -1.8924 H   0  0  0  0  0  0  0  0  0  0  0  0
   -1.2644    2.1038   -2.7473 H   0  0  0  0  0  0  0  0  0  0  0  0
   -0.9187    1.9448    1.1155 H   0  0  0  0  0  0  0  0  0  0  0  0
    0.4093    2.4779   -0.8938 H   0  0  0  0  0  0  0  0  0  0  0  0
    1.6370   -0.4360    0.5363 H   0  0  0  0  0  0  0  0  0  0  0  0
    2.0612    1.2432    0.0980 H   0  0  0  0  0  0  0  0  0  0  0  0
    2.4763    0.3641   -2.2766 H   0  0  0  0  0  0  0  0  0  0  0  0
    2.3760   -1.2703   -1.6095 H   0  0  0  0  0  0  0  0  0  0  0  0
    4.3006    1.8615   -1.7116 H   0  0  0  0  0  0  0  0  0  0  0  0
    6.6155    2.0960   -0.9881 H   0  0  0  0  0  0  0  0  0  0  0  0
    8.3857    2.1842    0.5754 H   0  0  0  0  0  0  0  0  0  0  0  0
    8.9191    1.4781   -0.9774 H   0  0  0  0  0  0  0  0  0  0  0  0
    9.7681    1.0625    0.5320 H   0  0  0  0  0  0  0  0  0  0  0  0
    6.8324   -3.8109    1.6511 H   0  0  0  0  0  0  0  0  0  0  0  0
    5.2111   -3.0880    1.7934 H   0  0  0  0  0  0  0  0  0  0  0  0
    5.7645   -3.7505    0.2273 H   0  0  0  0  0  0  0  0  0  0  0  0
    4.1253   -2.0621   -0.0563 H   0  0  0  0  0  0  0  0  0  0  0  0
   -2.3027   -3.2923   -1.4218 H   0  0  0  0  0  0  0  0  0  0  0  0
   -1.4069   -1.8556   -0.8596 H   0  0  0  0  0  0  0  0  0  0  0  0
   -1.3917   -3.3393    0.0994 H   0  0  0  0  0  0  0  0  0  0  0  0
   -5.0178    2.4823   -0.0908 H   0  0  0  0  0  0  0  0  0  0  0  0
   -4.1830    2.7763    2.8204 H   0  0  0  0  0  0  0  0  0  0  0  0
   -4.9279    1.3341    2.1123 H   0  0  0  0  0  0  0  0  0  0  0  0
   -5.8271    2.8483    2.1913 H   0  0  0  0  0  0  0  0  0  0  0  0
   -3.5119    4.7397    1.2903 H   0  0  0  0  0  0  0  0  0  0  0  0
   -3.9899    4.7003   -0.4148 H   0  0  0  0  0  0  0  0  0  0  0  0
   -5.2153    4.7698    0.8425 H   0  0  0  0  0  0  0  0  0  0  0  0
   -1.1622    3.5483    2.8041 H   0  0  0  0  0  0  0  0  0  0  0  0
  1  2  2  0  0  0  0
  2  3  1  0  0  0  0
  3  4  1  0  0  0  0
  4  5  4  0  0  0  0
  5  6  4  0  0  0  0
  6  7  1  0  0  0  0
  7  8  1  0  0  0  0
  6  9  1  0  0  0  0
  9 10  1  0  0  0  0
 10 11  1  0  0  0  0
  9 12  1  0  0  0  0
  4 13  4  0  0  0  0
 12 13  2  0  0  0  0
  3 14  1  0  0  0  0
 14 15  1  0  0  0  0
 15 16  1  0  0  0  0
 16 17  2  0  0  0  0
 17 18  1  0  0  0  0
 18 19  1  0  0  0  0
 19 20  1  0  0  0  0
 20 21  4  0  0  0  0
 21 22  4  0  0  0  0
 22 23  4  0  0  0  0
 23 24  1  0  0  0  0
 24 25  1  0  0  0  0
 23 26  4  0  0  0  0
 26 27  1  0  0  0  0
 27 28  1  0  0  0  0
 20 29  4  0  0  0  0
 26 29  4  0  0  0  0
  9 30  1  0  0  0  0
  3 31  1  0  0  0  0
 31 32  1  0  0  0  0
 31 33  1  0  0  0  0
  5 34  1  0  0  0  0
  8 35  1  0  0  0  0
  8 36  1  0  0  0  0
  8 37  1  0  0  0  0
 11 38  1  0  0  0  0
 11 39  1  0  0  0  0
 11 40  1  0  0  0  0
 12 41  1  0  0  0  0
 13 42  1  0  0  0  0
 14 43  1  0  0  0  0
 14 44  1  0  0  0  0
 15 45  1  0  0  0  0
 15 46  1  0  0  0  0
  2 47  1  0  0  0  0
 16 48  1  0  0  0  0
 18 49  1  0  0  0  0
 18 50  1  0  0  0  0
 19 51  1  0  0  0  0
 19 52  1  0  0  0  0
 21 53  1  0  0  0  0
 22 54  1  0  0  0  0
 25 55  1  0  0  0  0
 25 56  1  0  0  0  0
 25 57  1  0  0  0  0
 28 58  1  0  0  0  0
 28 59  1  0  0  0  0
 28 60  1  0  0  0  0
 29 61  1  0  0  0  0
 30 62  1  0  0  0  0
 30 63  1  0  0  0  0
 30 64  1  0  0  0  0
 31 65  1  0  0  0  0
 32 66  1  0  0  0  0
 32 67  1  0  0  0  0
 32 68  1  0  0  0  0
 33 69  1  0  0  0  0
 33 70  1  0  0  0  0
 33 71  1  0  0  0  0
  1 72  1  0  0  0  0
M  CHG  1   1   1
M  END
