 xtb: 6.6.1 (8d0f1dd)
          06052419583D

 25 25  0     0  0            999 V2000
    2.7541    0.7141   -1.2189 C   0  0  0  0  0  0  0  0  0  0  0  0
    2.2539   -0.2046   -0.2275 N   0  0  0  0  0  0  0  0  0  0  0  0
    3.0911   -0.8401    0.6304 C   0  0  0  0  0  0  0  0  0  0  0  0
    2.8097   -1.5714    1.6203 N   0  0  0  0  0  0  0  0  0  0  0  0
    0.0816   -1.3132   -0.3763 C   0  0  0  0  0  0  0  0  0  0  0  0
    0.8598   -0.2500   -0.0791 C   0  0  0  0  0  0  0  0  0  0  0  0
    0.1977    0.9954    0.3721 C   0  0  0  0  0  0  0  0  0  0  0  0
    0.8249    1.9873    0.6735 O   0  0  0  0  0  0  0  0  0  0  0  0
   -1.1815    0.9254    0.4307 N   0  0  0  0  0  0  0  0  0  0  0  0
   -1.9111    2.1071    0.8601 C   0  0  0  0  0  0  0  0  0  0  0  0
   -1.9528   -0.1651    0.0780 C   0  0  0  0  0  0  0  0  0  0  0  0
   -3.1554   -0.1469    0.0978 O   0  0  0  0  0  0  0  0  0  0  0  0
   -1.2378   -1.3126   -0.3198 N   0  0  0  0  0  0  0  0  0  0  0  0
   -2.0106   -2.4587   -0.7539 C   0  0  0  0  0  0  0  0  0  0  0  0
    2.6843    1.7446   -0.8543 H   0  0  0  0  0  0  0  0  0  0  0  0
    3.7932    0.4897   -1.4497 H   0  0  0  0  0  0  0  0  0  0  0  0
    2.1559    0.6283   -2.1268 H   0  0  0  0  0  0  0  0  0  0  0  0
    4.1501   -0.6905    0.4165 H   0  0  0  0  0  0  0  0  0  0  0  0
   -1.1914    2.8880    1.1017 H   0  0  0  0  0  0  0  0  0  0  0  0
   -2.5782    2.4406    0.0626 H   0  0  0  0  0  0  0  0  0  0  0  0
   -2.5199    1.8704    1.7347 H   0  0  0  0  0  0  0  0  0  0  0  0
   -2.0431   -3.2180    0.0298 H   0  0  0  0  0  0  0  0  0  0  0  0
   -1.5580   -2.8922   -1.6452 H   0  0  0  0  0  0  0  0  0  0  0  0
   -3.0290   -2.1319   -0.9681 H   0  0  0  0  0  0  0  0  0  0  0  0
    1.8727   -1.7775    1.9428 H   0  0  0  0  0  0  0  0  0  0  0  0
  1  2  1  0  0  0  0
  2  3  4  0  0  0  0
  3  4  2  0  0  0  0
  2  6  1  0  0  0  0
  5  6  2  0  0  0  0
  6  7  1  0  0  0  0
  7  8  2  0  0  0  0
  7  9  1  0  0  0  0
  9 10  1  0  0  0  0
  9 11  1  0  0  0  0
 11 12  2  0  0  0  0
  5 13  4  0  0  0  0
 11 13  1  0  0  0  0
 13 14  1  0  0  0  0
  1 15  1  0  0  0  0
  1 16  1  0  0  0  0
  1 17  1  0  0  0  0
  3 18  1  0  0  0  0
 10 19  1  0  0  0  0
 10 20  1  0  0  0  0
 10 21  1  0  0  0  0
 14 22  1  0  0  0  0
 14 23  1  0  0  0  0
 14 24  1  0  0  0  0
  4 25  1  0  0  0  0
M  CHG  1   1   1
M  END
