          24
 
C              3.24758649        1.13005682        0.03649448
N              2.28608886        0.06072893       -0.00038783
C              2.54897762       -1.24311698        0.00419521
N              1.39110267       -1.94449293       -0.00332907
C              0.35909300       -1.05527055       -0.01032506
C              0.91609435        0.21804949       -0.01004030
C              0.12025655        1.40587300       -0.02852070
O              0.50027318        2.55437909       -0.05952218
N             -1.28812189        1.09148009        0.00462918
C             -2.14195486        2.12282586        0.02851854
C             -1.85738012       -0.21530315        0.00551415
O             -3.04620477       -0.37726229        0.01635599
N             -0.96858525       -1.28820694       -0.01015977
C             -1.49862450       -2.64042467       -0.02412961
H              3.74563268        1.15599780        1.00661826
H              3.99806604        0.99015570       -0.74042625
H              2.72872031        2.07423126       -0.11958886
H              3.52789052       -1.67816113        0.01098171
H             -1.72419943        3.11336315        0.01103785
H             -3.21287559        1.93909495        0.13195665
H             -1.16956448       -3.18548225        0.86057871
H             -1.18351477       -3.16107421       -0.92844587
H             -2.58501768       -2.57186338       -0.01474001
H              1.31730825       -2.95153904       -0.00632487
