 xtb: 6.6.1 (8d0f1dd)
          06052419583D

 25 26  0     0  0            999 V2000
    3.3111    1.5965    0.0366 C   0  0  0  0  0  0  0  0  0  0  0  0
    2.5709    0.3629    0.0362 N   0  0  0  0  0  0  0  0  0  0  0  0
    3.0633   -0.8796    0.0586 C   0  0  0  0  0  0  0  0  0  0  0  0
    2.0518   -1.7785    0.0528 N   0  0  0  0  0  0  0  0  0  0  0  0
    0.8763   -1.0922    0.0266 C   0  0  0  0  0  0  0  0  0  0  0  0
    1.2006    0.2658    0.0161 C   0  0  0  0  0  0  0  0  0  0  0  0
    0.1756    1.2711   -0.0135 C   0  0  0  0  0  0  0  0  0  0  0  0
    0.3300    2.4745   -0.0297 O   0  0  0  0  0  0  0  0  0  0  0  0
   -1.1082    0.6820   -0.0235 N   0  0  0  0  0  0  0  0  0  0  0  0
   -2.2542    1.5699   -0.0525 C   0  0  0  0  0  0  0  0  0  0  0  0
   -1.3172   -0.6666   -0.0119 C   0  0  0  0  0  0  0  0  0  0  0  0
   -2.5826   -1.0140   -0.0240 O   0  0  0  0  0  0  0  0  0  0  0  0
   -0.3690   -1.5764    0.0118 N   0  0  0  0  0  0  0  0  0  0  0  0
   -2.9067   -2.4006   -0.0303 C   0  0  0  0  0  0  0  0  0  0  0  0
    3.9008    1.6887    0.9498 H   0  0  0  0  0  0  0  0  0  0  0  0
    3.9839    1.6392   -0.8207 H   0  0  0  0  0  0  0  0  0  0  0  0
    2.6022    2.4233   -0.0177 H   0  0  0  0  0  0  0  0  0  0  0  0
    4.1047   -1.1312    0.0776 H   0  0  0  0  0  0  0  0  0  0  0  0
   -1.8790    2.5926   -0.0668 H   0  0  0  0  0  0  0  0  0  0  0  0
   -2.8540    1.3804   -0.9424 H   0  0  0  0  0  0  0  0  0  0  0  0
   -2.8740    1.4130    0.8301 H   0  0  0  0  0  0  0  0  0  0  0  0
   -2.4896   -2.9026    0.8418 H   0  0  0  0  0  0  0  0  0  0  0  0
   -2.5283   -2.8826   -0.9346 H   0  0  0  0  0  0  0  0  0  0  0  0
   -3.9965   -2.4341   -0.0060 H   0  0  0  0  0  0  0  0  0  0  0  0
    2.1485   -2.7834    0.0668 H   0  0  0  0  0  0  0  0  0  0  0  0
  1  2  1  0  0  0  0
  2  3  4  0  0  0  0
  3  4  4  0  0  0  0
  4  5  1  0  0  0  0
  2  6  1  0  0  0  0
  5  6  4  0  0  0  0
  6  7  1  0  0  0  0
  7  8  2  0  0  0  0
  7  9  1  0  0  0  0
  9 10  1  0  0  0  0
  9 11  1  0  0  0  0
 11 12  1  0  0  0  0
  5 13  4  0  0  0  0
 11 13  4  0  0  0  0
 12 14  1  0  0  0  0
  1 15  1  0  0  0  0
  1 16  1  0  0  0  0
  1 17  1  0  0  0  0
  3 18  1  0  0  0  0
 10 19  1  0  0  0  0
 10 20  1  0  0  0  0
 10 21  1  0  0  0  0
 14 22  1  0  0  0  0
 14 23  1  0  0  0  0
 14 24  1  0  0  0  0
  4 25  1  0  0  0  0
M  CHG  1   1   1
M  END
