          25
 
C              3.13063301        0.79816464       -0.02668447
C              3.28952899        0.38347111       -1.43226867
C              4.53500361        0.39521775       -0.51534381
C              5.50268552        1.45159463       -0.72530348
C              6.83702931        1.24643154       -0.53525177
C              7.33135790       -0.00161770       -0.12126149
O              8.61381822       -0.30274772        0.07453443
C              9.61748645        0.66157562       -0.16857767
C              6.40575082       -1.07630508        0.12409026
O              6.98996287       -2.21673183        0.54155785
C              6.18032065       -3.33721600        0.81947904
C              5.06924308       -0.88371980       -0.07267699
H              2.64980913        0.11780025        0.65929249
H              2.98651066        1.84159732        0.20410468
H              3.26757483        1.13268115       -2.20826271
H              2.92124421       -0.58376384       -1.73367493
H              5.14100591        2.41743341       -1.04230287
H              7.52503363        2.05879120       -0.70587577
H              9.54134163        1.50135828        0.52935387
H              9.57467207        1.02989054       -1.19752817
H             10.56251327        0.14315938       -0.00915517
H              6.86595251       -4.11664914        1.14634002
H              5.46431895       -3.12356078        1.61977232
H              5.64471139       -3.67503154       -0.07327522
H              4.36197204       -1.67965260        0.09454791
