          52
 
N             -3.28852594        2.67670826        2.76662040
C             -2.42933775        2.60077879        1.80635927
C             -2.47058651        3.42048850        0.67547201
C             -1.43068369        3.25017947       -0.39105559
C             -0.90936093        1.85430753       -0.50938532
C              0.34863078        1.51255468       -0.17683015
N              0.88756104        0.26647173       -0.21219629
C              2.29527802        0.07989671        0.00975407
C              3.11072481        0.05104716       -1.30243909
C              4.57577436       -0.03198017       -0.99130598
C              5.35748710        1.11339232       -0.93889750
C              6.70287146        1.04350035       -0.61551683
C              7.29822663       -0.17758397       -0.32663996
O              8.58866169       -0.36559807       -0.00234788
C              9.45785402        0.74284341        0.04698538
C              6.50331653       -1.35892511       -0.37028650
O              7.15699562       -2.49774003       -0.07290530
C              6.46527344       -3.72319862       -0.10987480
C              5.16022663       -1.26278478       -0.70151555
C              0.13351561       -0.83805366       -0.74676482
C             -3.48037248        4.51341332        0.53013582
C             -4.89993088        3.93499176        0.45215797
C             -3.38979418        5.49765613        1.70225283
H             -1.86035161        3.56017453       -1.34914253
H             -0.60242824        3.93809160       -0.17826134
H             -1.61219823        1.11882491       -0.86782819
H             -1.60508312        1.87396406        1.82759927
H              1.02462513        2.27597538        0.18681958
H              2.44958722       -0.86007475        0.54827468
H              2.66781548        0.89303993        0.63671809
H              2.89796226        0.96064369       -1.86623287
H              2.80101582       -0.80730384       -1.90037014
H              4.91988874        2.07439653       -1.16244707
H              7.28462381        1.95042639       -0.59137917
H              9.14807817        1.45992433        0.81308720
H              9.51947338        1.24637343       -0.92215411
H             10.43386223        0.33706585        0.30597884
H              7.19812748       -4.48082456        0.16139774
H              5.64259825       -3.74182248        0.61209031
H              6.07916953       -3.93507153       -1.11169713
H              4.55305711       -2.15323571       -0.74774467
H             -0.05655303       -0.71392350       -1.81747571
H             -0.82716481       -0.92083537       -0.23474535
H              0.68682148       -1.76158685       -0.59427535
H             -3.27577895        5.06058561       -0.39752946
H             -5.11037752        3.36741453        1.35400383
H             -5.00652079        3.28498314       -0.41381394
H             -5.62073695        4.74355114        0.36627650
H             -3.61280253        4.97921875        2.63056033
H             -2.39275312        5.92780354        1.76680509
H             -4.10694202        6.30213839        1.56345231
H             -3.15014068        2.07168102        3.56538681
