 xtb: 6.6.1 (8d0f1dd)
          06052419583D

 25 26  0     0  0            999 V2000
    3.1790    1.1531    0.5157 C   0  0  0  0  0  0  0  0  0  0  0  0
    2.2958    0.0911    0.1435 N   0  0  0  0  0  0  0  0  0  0  0  0
    2.6327   -1.2360    0.2811 C   0  0  0  0  0  0  0  0  0  0  0  0
    1.6059   -1.9537   -0.1007 N   0  0  0  0  0  0  0  0  0  0  0  0
    0.5060   -1.1388   -0.6059 C   0  0  0  0  0  0  0  0  0  0  0  0
    1.0550    0.2184   -0.3444 C   0  0  0  0  0  0  0  0  0  0  0  0
    0.1929    1.3849   -0.3023 C   0  0  0  0  0  0  0  0  0  0  0  0
    0.5816    2.5328   -0.2961 O   0  0  0  0  0  0  0  0  0  0  0  0
   -1.1488    1.0388   -0.2258 N   0  0  0  0  0  0  0  0  0  0  0  0
   -2.1252    2.1101   -0.1995 C   0  0  0  0  0  0  0  0  0  0  0  0
   -1.6489   -0.2325    0.0973 C   0  0  0  0  0  0  0  0  0  0  0  0
   -2.7994   -0.3694    0.4183 O   0  0  0  0  0  0  0  0  0  0  0  0
   -0.7687   -1.2922    0.0483 N   0  0  0  0  0  0  0  0  0  0  0  0
   -1.2775   -2.6322    0.2488 C   0  0  0  0  0  0  0  0  0  0  0  0
    3.5086    1.0074    1.5464 H   0  0  0  0  0  0  0  0  0  0  0  0
    4.0673    1.1269   -0.1198 H   0  0  0  0  0  0  0  0  0  0  0  0
    2.6776    2.1142    0.4043 H   0  0  0  0  0  0  0  0  0  0  0  0
    0.3806   -1.3643   -1.6869 H   0  0  0  0  0  0  0  0  0  0  0  0
   -1.6199    3.0450   -0.4320 H   0  0  0  0  0  0  0  0  0  0  0  0
   -2.9072    1.9030   -0.9317 H   0  0  0  0  0  0  0  0  0  0  0  0
   -2.5976    2.1730    0.7829 H   0  0  0  0  0  0  0  0  0  0  0  0
   -0.7259   -3.1251    1.0504 H   0  0  0  0  0  0  0  0  0  0  0  0
   -1.1952   -3.2186   -0.6688 H   0  0  0  0  0  0  0  0  0  0  0  0
   -2.3255   -2.5555    0.5343 H   0  0  0  0  0  0  0  0  0  0  0  0
    1.6172   -2.9622   -0.1261 H   0  0  0  0  0  0  0  0  0  0  0  0
  1  2  1  0  0  0  0
  2  3  1  0  0  0  0
  3  4  2  0  0  0  0
  4  5  1  0  0  0  0
  2  6  4  0  0  0  0
  5  6  1  0  0  0  0
  6  7  1  0  0  0  0
  7  8  2  0  0  0  0
  7  9  1  0  0  0  0
  9 10  1  0  0  0  0
  9 11  1  0  0  0  0
 11 12  2  0  0  0  0
  5 13  1  0  0  0  0
 11 13  1  0  0  0  0
 13 14  1  0  0  0  0
  1 15  1  0  0  0  0
  1 16  1  0  0  0  0
  1 17  1  0  0  0  0
  5 18  1  0  0  0  0
 10 19  1  0  0  0  0
 10 20  1  0  0  0  0
 10 21  1  0  0  0  0
 14 22  1  0  0  0  0
 14 23  1  0  0  0  0
 14 24  1  0  0  0  0
  4 25  1  0  0  0  0
M  CHG  1   1   1
M  END
