 xtb: 6.6.1 (8d0f1dd)
          06052419583D

 25 26  0     0  0            999 V2000
    3.2266    1.2064    0.0846 C   0  0  0  0  0  0  0  0  0  0  0  0
    2.3258    0.0848    0.0553 N   0  0  0  0  0  0  0  0  0  0  0  0
    2.6534   -1.2072    0.0679 C   0  0  0  0  0  0  0  0  0  0  0  0
    1.5380   -1.9636    0.0371 N   0  0  0  0  0  0  0  0  0  0  0  0
    0.4594   -1.1223    0.0049 C   0  0  0  0  0  0  0  0  0  0  0  0
    0.9539    0.1757    0.0143 C   0  0  0  0  0  0  0  0  0  0  0  0
    0.1051    1.3349   -0.0395 C   0  0  0  0  0  0  0  0  0  0  0  0
    0.4484    2.5007   -0.0685 O   0  0  0  0  0  0  0  0  0  0  0  0
   -1.2432    0.9411   -0.0559 N   0  0  0  0  0  0  0  0  0  0  0  0
   -2.2436    1.9962   -0.0936 C   0  0  0  0  0  0  0  0  0  0  0  0
   -1.6888   -0.3323   -0.0371 C   0  0  0  0  0  0  0  0  0  0  0  0
   -3.0050   -0.5179   -0.0008 O   0  0  0  0  0  0  0  0  0  0  0  0
   -0.8755   -1.4340   -0.0379 N   0  0  0  0  0  0  0  0  0  0  0  0
   -1.3564   -2.6994   -0.0056 C   0  0  0  0  0  0  0  0  0  0  0  0
    3.7676    1.2344    1.0312 H   0  0  0  0  0  0  0  0  0  0  0  0
    3.9459    1.1353   -0.7307 H   0  0  0  0  0  0  0  0  0  0  0  0
    2.6417    2.1202   -0.0209 H   0  0  0  0  0  0  0  0  0  0  0  0
    3.6525   -1.5934    0.0954 H   0  0  0  0  0  0  0  0  0  0  0  0
   -1.7092    2.9444   -0.0936 H   0  0  0  0  0  0  0  0  0  0  0  0
   -2.8500    1.9061   -0.9930 H   0  0  0  0  0  0  0  0  0  0  0  0
   -2.8916    1.9292    0.7786 H   0  0  0  0  0  0  0  0  0  0  0  0
   -0.6643   -3.5022    0.0851 H   0  0  0  0  0  0  0  0  0  0  0  0
   -2.3397   -2.9177   -0.3618 H   0  0  0  0  0  0  0  0  0  0  0  0
   -3.2006   -1.4285    0.2833 H   0  0  0  0  0  0  0  0  0  0  0  0
    1.5100   -2.9728    0.0323 H   0  0  0  0  0  0  0  0  0  0  0  0
  1  2  1  0  0  0  0
  2  3  4  0  0  0  0
  3  4  4  0  0  0  0
  4  5  1  0  0  0  0
  2  6  1  0  0  0  0
  5  6  4  0  0  0  0
  6  7  1  0  0  0  0
  7  8  2  0  0  0  0
  7  9  1  0  0  0  0
  9 10  1  0  0  0  0
  9 11  4  0  0  0  0
 11 12  1  0  0  0  0
  5 13  1  0  0  0  0
 11 13  1  0  0  0  0
 13 14  4  0  0  0  0
  1 15  1  0  0  0  0
  1 16  1  0  0  0  0
  1 17  1  0  0  0  0
  3 18  1  0  0  0  0
 10 19  1  0  0  0  0
 10 20  1  0  0  0  0
 10 21  1  0  0  0  0
 14 22  1  0  0  0  0
 14 23  1  0  0  0  0
 12 24  1  0  0  0  0
  4 25  1  0  0  0  0
M  CHG  1   1   1
M  END
