          66
 
N             -1.80983749        2.84514820        2.38352260
C             -1.86065479        2.15584696        1.34291796
C             -3.06326012        2.05312129        0.44493667
C             -3.57651682        0.62241679        0.44548362
C             -4.53040999        0.22789924       -0.49510944
C             -5.03758204       -1.06025540       -0.51540587
O             -5.96128702       -1.52004136       -1.38626876
C             -6.55931205       -0.62250972       -2.29144054
C             -4.57546079       -2.00902607        0.43561961
O             -5.11509828       -3.24134750        0.33566540
C             -4.77646237       -4.21582508        1.29432909
C             -3.63541177       -1.60907030        1.37157326
C             -3.14538092       -0.30865555        1.37698789
C             -2.56526908        2.44631061       -0.97175183
C             -1.74492558        1.36103704       -1.69380734
C             -0.39509565        1.15922543       -1.12342990
N              0.15996095       -0.01271811       -0.84960798
C              1.55457483       -0.09358765       -0.48890229
C              2.42837178       -0.58464932       -1.66518887
C              3.86653062       -0.43731135       -1.31068064
C              4.63639314        0.73917314       -1.50915744
C              5.90784184        0.52078622       -1.01634660
C              5.94411914       -0.80081242       -0.49481973
O              7.05578404       -1.32853425        0.04962343
C              6.96611658       -2.65561760        0.52788673
C              4.67303079       -1.38154472       -0.67508939
C             -0.55652435       -1.25715909       -0.98965623
C             -4.23520793        2.98669712        0.87004725
C             -4.78961387        2.59960599        2.23909280
C             -3.85822184        4.46559641        0.86580373
H             -4.89010471        0.94526490       -1.21393264
H             -7.05286914        0.20323936       -1.77014280
H             -7.30447714       -1.20463602       -2.82995598
H             -5.83080951       -0.22298475       -3.00479273
H             -5.02744827       -3.88661158        2.30696066
H             -5.37052733       -5.09202447        1.04220300
H             -3.71342209       -4.47378598        1.24677401
H             -3.28134634       -2.30172082        2.11769087
H             -2.43650725       -0.02632950        2.13988891
H             -3.42878378        2.68259969       -1.59268814
H             -1.96225216        3.35164138       -0.89010860
H             -2.31006452        0.43145649       -1.72438928
H             -1.61299278        1.70751509       -2.72716546
H             -1.00361748        1.58238061        0.94279965
H              0.23922857        2.02806503       -1.02800281
H              1.67082775       -0.77633496        0.35660081
H              1.90664006        0.89367303       -0.18464826
H              2.20083368        0.02361592       -2.54315624
H              2.19448722       -1.62622442       -1.88888570
H              4.28471360        1.63715015       -1.98106973
H              6.73118968        1.20717231       -1.02458917
H              7.94612891       -2.89982151        0.93476888
H              6.21965993       -2.73246958        1.32188062
H              6.71384974       -3.34531640       -0.28204552
H              4.37444902       -2.37348526       -0.39519649
H             -0.78635637       -1.46678149       -2.03662719
H             -1.49068707       -1.22612904       -0.42355686
H              0.05658033       -2.06673519       -0.60198959
H             -5.03161393        2.83723002        0.13165181
H             -4.03858614        2.76429207        3.00486780
H             -5.09332417        1.55577258        2.25968345
H             -5.65749684        3.21278328        2.46703917
H             -3.03777708        4.64675378        1.55303912
H             -3.57963875        4.81130740       -0.12612113
H             -4.71255514        5.05143700        1.19477281
H             -0.93314888        2.86474740        2.89539551
