 xtb: 6.6.1 (8d0f1dd)
          06052419583D

 25 25  0     0  0            999 V2000
    3.2530    1.2399    0.0218 C   0  0  0  0  0  0  0  0  0  0  0  0
    2.3184    0.1514   -0.0510 N   0  0  0  0  0  0  0  0  0  0  0  0
    2.6082   -1.1531   -0.0949 C   0  0  0  0  0  0  0  0  0  0  0  0
    1.4646   -1.8787   -0.1317 N   0  0  0  0  0  0  0  0  0  0  0  0
    0.4093   -1.0023   -0.1032 C   0  0  0  0  0  0  0  0  0  0  0  0
    0.9481    0.2798   -0.0522 C   0  0  0  0  0  0  0  0  0  0  0  0
    0.1238    1.4601   -0.0317 C   0  0  0  0  0  0  0  0  0  0  0  0
    0.5186    2.6094   -0.0224 O   0  0  0  0  0  0  0  0  0  0  0  0
   -1.2399    1.1315   -0.0252 N   0  0  0  0  0  0  0  0  0  0  0  0
   -2.1879    2.2357    0.0198 C   0  0  0  0  0  0  0  0  0  0  0  0
   -1.8115   -0.1143   -0.0559 C   0  0  0  0  0  0  0  0  0  0  0  0
   -2.9990   -0.2971   -0.0357 O   0  0  0  0  0  0  0  0  0  0  0  0
   -0.9239   -1.2587   -0.1213 N   0  0  0  0  0  0  0  0  0  0  0  0
   -1.4816   -2.4791   -0.1975 C   0  0  0  0  0  0  0  0  0  0  0  0
    3.7481    1.2521    0.9950 H   0  0  0  0  0  0  0  0  0  0  0  0
    4.0115    1.1429   -0.7545 H   0  0  0  0  0  0  0  0  0  0  0  0
    2.7104    2.1762   -0.1093 H   0  0  0  0  0  0  0  0  0  0  0  0
    3.5948   -1.5712   -0.1073 H   0  0  0  0  0  0  0  0  0  0  0  0
   -1.6220    3.1650    0.0250 H   0  0  0  0  0  0  0  0  0  0  0  0
   -2.8450    2.1983   -0.8491 H   0  0  0  0  0  0  0  0  0  0  0  0
   -2.8018    2.1621    0.9178 H   0  0  0  0  0  0  0  0  0  0  0  0
   -2.6281   -4.8555    1.4286 H   0  0  0  0  0  0  0  0  0  0  0  0
   -0.8764   -3.3582   -0.2607 H   0  0  0  0  0  0  0  0  0  0  0  0
   -2.5537   -2.5320   -0.2135 H   0  0  0  0  0  0  0  0  0  0  0  0
    1.4224   -2.8863   -0.1596 H   0  0  0  0  0  0  0  0  0  0  0  0
  1  2  1  0  0  0  0
  2  3  4  0  0  0  0
  3  4  4  0  0  0  0
  4  5  1  0  0  0  0
  2  6  1  0  0  0  0
  5  6  4  0  0  0  0
  6  7  1  0  0  0  0
  7  8  2  0  0  0  0
  7  9  1  0  0  0  0
  9 10  1  0  0  0  0
  9 11  1  0  0  0  0
 11 12  2  0  0  0  0
  5 13  1  0  0  0  0
 11 13  1  0  0  0  0
 13 14  4  0  0  0  0
  1 15  1  0  0  0  0
  1 16  1  0  0  0  0
  1 17  1  0  0  0  0
  3 18  1  0  0  0  0
 10 19  1  0  0  0  0
 10 20  1  0  0  0  0
 10 21  1  0  0  0  0
 14 23  1  0  0  0  0
 14 24  1  0  0  0  0
  4 25  1  0  0  0  0
M  CHG  1   1   1
M  END
