          68
 
N             -1.69713541        3.03942877        2.37999252
C             -1.67905335        2.38862945        1.31530041
C             -2.85494370        2.22954506        0.39015336
C             -3.33646858        0.79016197        0.44016757
C             -4.30758089        0.34246635       -0.45834264
C             -4.74642110       -0.96814892       -0.46694684
O             -5.69057540       -1.46512956       -1.27727016
C             -6.39869740       -0.60805175       -2.14036967
C             -4.17166359       -1.96073364        0.44946861
O             -4.49335521       -3.15593685        0.40998199
C             -3.21611331       -1.43594937        1.37978576
C             -2.82691500       -0.12219791        1.37314531
C             -2.33334723        2.56046578       -1.03465205
C             -1.47289173        1.45908262       -1.68105303
C             -0.13888219        1.30196206       -1.06193746
N              0.43039112        0.15079663       -0.74370441
C              1.80775696        0.10967689       -0.31141724
C              2.74654454       -0.34685362       -1.44482781
C              4.17700715       -0.25900900       -0.99157456
C              4.87655789        0.93255134       -1.10375397
C              6.18841399        1.02997824       -0.66829547
C              6.82889614       -0.06566475       -0.10609116
O              8.09548574       -0.08830692        0.34369959
C              8.88579565        1.07380206        0.23748652
C              6.11721579       -1.29228084        0.01841924
O              6.81337345       -2.30311418        0.57085679
C              6.20881213       -3.56760031        0.70643015
C              4.80423614       -1.36388367       -0.42217275
C             -0.25195861       -1.11372121       -0.88736242
C             -4.04304369        3.17406395        0.74597844
C             -4.67483492        2.79250702        2.08184970
C             -3.65367527        4.64947543        0.76003741
H             -4.73417368        1.04222965       -1.16045191
H             -6.90272721        0.18842790       -1.58473711
H             -7.14232200       -1.23219627       -2.63196815
H             -5.74042778       -0.16768433       -2.89640575
H             -2.81442813       -2.13133089        2.10017523
H             -2.11749336        0.21460255        2.11500559
H             -3.18858285        2.73829390       -1.68601869
H             -1.75524128        3.48436301       -0.99065346
H             -2.02406633        0.52094358       -1.69108742
H             -1.31166533        1.76482739       -2.72257619
H             -0.77938665        1.87836992        0.91932771
H              0.47744267        2.18602884       -0.98113991
H              1.89693445       -0.57637146        0.53497943
H              2.11386735        1.10397094        0.02055196
H              2.59203163        0.30162498       -2.30915578
H              2.50480667       -1.37019154       -1.73301769
H              4.40480801        1.79613381       -1.54754229
H              6.70874605        1.96731117       -0.77673953
H              8.46243702        1.90029300        0.81622452
H              9.00664297        1.38127266       -0.80549190
H              9.85656581        0.80520391        0.64942421
H              6.96909425       -4.20861210        1.14835013
H              5.33968422       -3.52763771        1.37064348
H              5.91093994       -3.97577097       -0.26419306
H              4.25893087       -2.29086723       -0.33874182
H             -0.44549764       -1.33979647       -1.93772560
H             -1.20211552       -1.10264954       -0.34812353
H              0.36595748       -1.90481283       -0.47130227
H             -4.79732457        3.03253046       -0.03691616
H             -3.95050123        2.90524112        2.88282771
H             -5.02931716        1.76412395        2.06925255
H             -5.51974556        3.44474695        2.28506412
H             -2.91817228        4.83866754        1.53613489
H             -3.25602513        4.97548443       -0.19686278
H             -4.53480142        5.24755426        0.97469880
H             -0.84138609        3.09621539        2.92256624
