          19
 
C              4.88862136       -0.67358324       -0.61337971
C              5.37105879        0.57028155       -0.88700662
C              6.69935204        0.82711388       -0.53686653
C              7.47752004       -0.15583216        0.05742256
O              8.76407615       -0.01353360        0.43708288
C              9.40981683        1.22228616        0.23459663
C              6.92704509       -1.44583491        0.31077865
O              7.76021478       -2.33291551        0.87858905
C              7.30930331       -3.64190388        1.13619844
C              5.59614599       -1.68943552       -0.03864971
H              4.77763966        1.33626457       -1.35830744
H              7.10657459        1.80396579       -0.74344266
H              8.91192363        2.02849077        0.78197895
H              9.46170373        1.47793039       -0.82816258
H             10.41777475        1.09065706        0.62380129
H              8.16154783       -4.16519599        1.56508330
H              6.48328576       -3.64544303        1.85401052
H              6.99962827       -4.14640106        0.21590203
H              5.14900296       -2.65453450        0.14012809
