 xtb: 6.6.1 (8d0f1dd)
          06052419583D

 25 26  0     0  0            999 V2000
    3.1889    1.2929    0.0303 C   0  0  0  0  0  0  0  0  0  0  0  0
    2.3260    0.1537   -0.0330 N   0  0  0  0  0  0  0  0  0  0  0  0
    1.1049   -2.2580    0.9176 C   0  0  0  0  0  0  0  0  0  0  0  0
    1.2347   -2.3515   -0.4276 N   0  0  0  0  0  0  0  0  0  0  0  0
    0.4033   -1.2452    0.0711 C   0  0  0  0  0  0  0  0  0  0  0  0
    0.9976    0.1030   -0.0437 C   0  0  0  0  0  0  0  0  0  0  0  0
    0.1573    1.2854   -0.0822 C   0  0  0  0  0  0  0  0  0  0  0  0
    0.5779    2.4260   -0.1390 O   0  0  0  0  0  0  0  0  0  0  0  0
   -1.2189    1.0420   -0.0380 N   0  0  0  0  0  0  0  0  0  0  0  0
   -2.1087    2.1977   -0.0187 C   0  0  0  0  0  0  0  0  0  0  0  0
   -1.8531   -0.1601   -0.0653 C   0  0  0  0  0  0  0  0  0  0  0  0
   -3.0445   -0.2917   -0.0778 O   0  0  0  0  0  0  0  0  0  0  0  0
   -1.0121   -1.3381   -0.0891 N   0  0  0  0  0  0  0  0  0  0  0  0
   -1.6444   -2.4997   -0.2041 C   0  0  0  0  0  0  0  0  0  0  0  0
    3.8147    1.2136    0.9210 H   0  0  0  0  0  0  0  0  0  0  0  0
    3.8495    1.3043   -0.8384 H   0  0  0  0  0  0  0  0  0  0  0  0
    2.6143    2.2150    0.0607 H   0  0  0  0  0  0  0  0  0  0  0  0
    2.7949   -0.7480   -0.0275 H   0  0  0  0  0  0  0  0  0  0  0  0
   -1.4998    3.0945    0.0724 H   0  0  0  0  0  0  0  0  0  0  0  0
   -2.6933    2.2336   -0.9393 H   0  0  0  0  0  0  0  0  0  0  0  0
   -2.7964    2.1119    0.8232 H   0  0  0  0  0  0  0  0  0  0  0  0
    0.8218   -2.9516    1.6913 H   0  0  0  0  0  0  0  0  0  0  0  0
   -1.1165   -3.4325   -0.2003 H   0  0  0  0  0  0  0  0  0  0  0  0
   -2.7173   -2.4699   -0.2808 H   0  0  0  0  0  0  0  0  0  0  0  0
    0.9797   -3.1093   -1.0518 H   0  0  0  0  0  0  0  0  0  0  0  0
  1  2  1  0  0  0  0
  3  4  4  0  0  0  0
  3  5  1  0  0  0  0
  4  5  1  0  0  0  0
  2  6  4  0  0  0  0
  5  6  1  0  0  0  0
  6  7  1  0  0  0  0
  7  8  2  0  0  0  0
  7  9  1  0  0  0  0
  9 10  1  0  0  0  0
  9 11  1  0  0  0  0
 11 12  2  0  0  0  0
  5 13  1  0  0  0  0
 11 13  1  0  0  0  0
 13 14  4  0  0  0  0
  1 15  1  0  0  0  0
  1 16  1  0  0  0  0
  1 17  1  0  0  0  0
  2 18  1  0  0  0  0
 10 19  1  0  0  0  0
 10 20  1  0  0  0  0
 10 21  1  0  0  0  0
  3 22  1  0  0  0  0
 14 23  1  0  0  0  0
 14 24  1  0  0  0  0
  4 25  1  0  0  0  0
M  CHG  1   1   1
M  END
