          68
 
N             -1.62316671        2.78025901        2.58685399
C             -1.73815239        2.11050505        1.53935020
C             -2.96139446        2.09014990        0.66601907
C             -3.55593172        0.69111892        0.64120608
C             -4.56351408        0.36901517       -0.26923037
C             -5.13386014       -0.88316434       -0.28797050
C             -4.71358385       -1.87396880        0.60704698
O             -5.32831574       -3.07033572        0.49639371
C             -5.01454638       -4.09493708        1.41338996
C             -3.71491145       -1.56042489        1.52540617
C             -3.15514640       -0.29258286        1.53661017
C             -2.47317259        2.48388095       -0.75330934
C             -1.68979424        1.38171788       -1.48823766
C             -0.33063145        1.16652552       -0.95313291
N              0.22973651       -0.00448430       -0.72499317
C              1.61861003       -0.08655167       -0.33783659
C              2.52441247       -0.46943403       -1.52442415
C              3.96446742       -0.33776238       -1.11415114
C              4.62608932        0.87119916       -1.26045608
C              5.93863122        1.01830473       -0.84088680
C              6.61672509       -0.04349231       -0.25894693
O              7.88454607       -0.01339479        0.18917696
C              8.62836165        1.17764406        0.06975117
C              5.94670070       -1.28968377       -0.10630051
O              6.67920977       -2.26658919        0.46235960
C              6.11349518       -3.54429724        0.63327053
C              4.63301278       -1.41186780       -0.53252972
C             -0.49660824       -1.24463862       -0.86153048
C             -4.07188491        3.07561521        1.13804283
C             -4.60748772        2.69338345        2.51584080
C             -3.62190018        4.53383495        1.14610984
H             -4.91669349        1.10846663       -0.97069420
H             -5.92379499       -1.12339593       -0.97993400
H             -5.21616597       -3.78567218        2.44287413
H             -5.66385031       -4.92913436        1.15478637
H             -3.96979662       -4.40793685        1.32203564
H             -3.37400469       -2.28807462        2.24467620
H             -2.40453707       -0.06923946        2.28109247
H             -3.34141875        2.73901085       -1.35933623
H             -1.85073740        3.37659079       -0.67501748
H             -2.26861487        0.46068986       -1.51301069
H             -1.57243554        1.72115227       -2.52537006
H             -0.92040955        1.50071862        1.11018418
H              0.30425443        2.03561021       -0.84353827
H              1.72673997       -0.82731911        0.45857885
H              1.94446147        0.88152809        0.04969178
H              2.31330121        0.20369344       -2.35696510
H              2.30888178       -1.48962362       -1.84276622
H              4.12289680        1.71042336       -1.71626518
H              6.42835158        1.96874430       -0.97470563
H              8.16859964        1.99479829        0.63399778
H              8.74316209        1.47483529       -0.97684563
H              9.60660550        0.95432373        0.49090364
H              6.89329645       -4.14985104        1.09093795
H              5.24422950       -3.51277208        1.29794852
H              5.82684470       -3.98757081       -0.32531671
H              4.11797362       -2.35371174       -0.42624299
H             -0.90521315       -1.35860237       -1.86540060
H             -1.33190683       -1.27398509       -0.15676927
H              0.16901732       -2.07718008       -0.65290433
H             -4.89438594        2.97809773        0.42031130
H             -3.82899290        2.80669950        3.26374933
H             -4.96422348        1.66629630        2.52780212
H             -5.43640410        3.34537218        2.77806156
H             -2.77538524        4.66488586        1.81322617
H             -3.35456283        4.88245438        0.15214566
H             -4.43751142        5.15478815        1.50731938
H             -0.73595408        2.75059798        3.07923195
