 xtb: 6.6.1 (8d0f1dd)
          06052419593D

 25 26  0     0  0            999 V2000
    3.2569    1.0565    0.0199 C   0  0  0  0  0  0  0  0  0  0  0  0
    2.3107   -0.0231   -0.0185 N   0  0  0  0  0  0  0  0  0  0  0  0
    2.5778   -1.3247    0.0039 C   0  0  0  0  0  0  0  0  0  0  0  0
    1.4221   -2.0358   -0.0146 N   0  0  0  0  0  0  0  0  0  0  0  0
    0.3913   -1.1514   -0.0477 C   0  0  0  0  0  0  0  0  0  0  0  0
    0.9433    0.1342   -0.0500 C   0  0  0  0  0  0  0  0  0  0  0  0
    0.1431    1.2876   -0.0667 C   0  0  0  0  0  0  0  0  0  0  0  0
   -1.7024    3.0433    0.9969 O   0  0  0  0  0  0  0  0  0  0  0  0
   -1.1674    1.0210   -0.0838 N   0  0  0  0  0  0  0  0  0  0  0  0
   -2.0762    2.1861   -0.0154 C   0  0  0  0  0  0  0  0  0  0  0  0
   -1.7907   -0.2340   -0.1279 C   0  0  0  0  0  0  0  0  0  0  0  0
   -2.9782   -0.3722   -0.2059 O   0  0  0  0  0  0  0  0  0  0  0  0
   -0.9337   -1.3543   -0.0877 N   0  0  0  0  0  0  0  0  0  0  0  0
   -1.5122   -2.6838   -0.0828 C   0  0  0  0  0  0  0  0  0  0  0  0
    3.6255    1.2034    1.0367 H   0  0  0  0  0  0  0  0  0  0  0  0
    4.1012    0.8457   -0.6344 H   0  0  0  0  0  0  0  0  0  0  0  0
    2.7531    1.9651   -0.3039 H   0  0  0  0  0  0  0  0  0  0  0  0
    3.5573   -1.7583    0.0314 H   0  0  0  0  0  0  0  0  0  0  0  0
   -2.0693    2.6725   -0.9951 H   0  0  0  0  0  0  0  0  0  0  0  0
   -3.0783    1.8150    0.2081 H   0  0  0  0  0  0  0  0  0  0  0  0
   -0.9604    3.6015    0.7197 H   0  0  0  0  0  0  0  0  0  0  0  0
   -1.2241   -3.2184    0.8226 H   0  0  0  0  0  0  0  0  0  0  0  0
   -1.1952   -3.2404   -0.9652 H   0  0  0  0  0  0  0  0  0  0  0  0
   -2.5954   -2.5726   -0.1034 H   0  0  0  0  0  0  0  0  0  0  0  0
    1.3618   -3.0445   -0.0049 H   0  0  0  0  0  0  0  0  0  0  0  0
  1  2  1  0  0  0  0
  2  3  4  0  0  0  0
  3  4  4  0  0  0  0
  4  5  4  0  0  0  0
  2  6  1  0  0  0  0
  5  6  4  0  0  0  0
  6  7  4  0  0  0  0
  7  9  4  0  0  0  0
  8 10  1  0  0  0  0
  9 10  1  0  0  0  0
  9 11  1  0  0  0  0
 11 12  2  0  0  0  0
  5 13  4  0  0  0  0
 11 13  1  0  0  0  0
 13 14  1  0  0  0  0
  1 15  1  0  0  0  0
  1 16  1  0  0  0  0
  1 17  1  0  0  0  0
  3 18  1  0  0  0  0
 10 19  1  0  0  0  0
 10 20  1  0  0  0  0
  8 21  1  0  0  0  0
 14 22  1  0  0  0  0
 14 23  1  0  0  0  0
 14 24  1  0  0  0  0
  4 25  1  0  0  0  0
M  CHG  1   1   1
M  END
