 xtb: 6.6.1 (8d0f1dd)
          04062411123D

 72 73  0     0  0            999 V2000
   -1.6330    3.5676    1.8769 N   0  0  0  0  0  0  0  0  0  0  0  0
   -1.8523    2.5205    1.0824 C   0  0  0  0  0  0  0  0  0  0  0  0
   -3.3566    2.1229    0.7063 C   0  0  0  0  0  0  0  0  0  0  0  0
   -3.5611    0.6515    0.5823 C   0  0  0  0  0  0  0  0  0  0  0  0
   -4.1589    0.1555   -0.5778 C   0  0  0  0  0  0  0  0  0  0  0  0
   -4.4023   -1.1999   -0.7338 C   0  0  0  0  0  0  0  0  0  0  0  0
   -4.9811   -1.7712   -1.8089 O   0  0  0  0  0  0  0  0  0  0  0  0
   -5.4852   -0.9521   -2.8385 C   0  0  0  0  0  0  0  0  0  0  0  0
   -4.0267   -2.1023    0.3015 C   0  0  0  0  0  0  0  0  0  0  0  0
   -4.3005   -3.3988    0.0670 O   0  0  0  0  0  0  0  0  0  0  0  0
   -4.0558   -4.3471    1.0811 C   0  0  0  0  0  0  0  0  0  0  0  0
   -3.4208   -1.5971    1.4442 C   0  0  0  0  0  0  0  0  0  0  0  0
   -3.1935   -0.2368    1.5838 C   0  0  0  0  0  0  0  0  0  0  0  0
   -2.4712    2.7580   -0.2947 C   0  0  0  0  0  0  0  0  0  0  0  0
   -1.0733    0.2003   -3.2953 C   0  0  0  0  0  0  0  0  0  0  0  0
   -0.0399    0.5531   -2.5199 C   0  0  0  0  0  0  0  0  0  0  0  0
    0.3483   -0.0451   -1.3583 N   0  0  0  0  0  0  0  0  0  0  0  0
    1.6687    0.2120   -0.8469 C   0  0  0  0  0  0  0  0  0  0  0  0
    2.7430   -0.6551   -1.5415 C   0  0  0  0  0  0  0  0  0  0  0  0
    4.1083   -0.3657   -0.9932 C   0  0  0  0  0  0  0  0  0  0  0  0
    4.8043    0.7681   -1.3944 C   0  0  0  0  0  0  0  0  0  0  0  0
    6.0623    1.0483   -0.8885 C   0  0  0  0  0  0  0  0  0  0  0  0
    6.6590    0.1978    0.0345 C   0  0  0  0  0  0  0  0  0  0  0  0
    7.8732    0.3621    0.5841 O   0  0  0  0  0  0  0  0  0  0  0  0
    8.6608    1.4691    0.2089 C   0  0  0  0  0  0  0  0  0  0  0  0
    5.9537   -0.9665    0.4551 C   0  0  0  0  0  0  0  0  0  0  0  0
    6.6052   -1.7389    1.3427 O   0  0  0  0  0  0  0  0  0  0  0  0
    6.0139   -2.9377    1.7860 C   0  0  0  0  0  0  0  0  0  0  0  0
    4.6912   -1.2205   -0.0620 C   0  0  0  0  0  0  0  0  0  0  0  0
   -0.3370   -1.2265   -0.8996 C   0  0  0  0  0  0  0  0  0  0  0  0
   -4.5028    2.8606    1.3809 C   0  0  0  0  0  0  0  0  0  0  0  0
   -4.5596    2.5269    2.8725 C   0  0  0  0  0  0  0  0  0  0  0  0
   -4.4580    4.3712    1.1883 C   0  0  0  0  0  0  0  0  0  0  0  0
   -4.4439    0.8525   -1.3498 H   0  0  0  0  0  0  0  0  0  0  0  0
   -6.2379   -0.2536   -2.4611 H   0  0  0  0  0  0  0  0  0  0  0  0
   -5.9492   -1.6317   -3.5509 H   0  0  0  0  0  0  0  0  0  0  0  0
   -4.6865   -0.3940   -3.3373 H   0  0  0  0  0  0  0  0  0  0  0  0
   -4.6002   -4.1017    1.9977 H   0  0  0  0  0  0  0  0  0  0  0  0
   -4.4185   -5.2954    0.6888 H   0  0  0  0  0  0  0  0  0  0  0  0
   -2.9870   -4.4311    1.3015 H   0  0  0  0  0  0  0  0  0  0  0  0
   -3.1283   -2.2608    2.2414 H   0  0  0  0  0  0  0  0  0  0  0  0
   -2.7200    0.1276    2.4820 H   0  0  0  0  0  0  0  0  0  0  0  0
   -2.6305    3.7937   -0.5494 H   0  0  0  0  0  0  0  0  0  0  0  0
   -2.0820    2.1437   -1.0943 H   0  0  0  0  0  0  0  0  0  0  0  0
   -1.6992   -0.6487   -3.0915 H   0  0  0  0  0  0  0  0  0  0  0  0
   -1.3062    0.7748   -4.1717 H   0  0  0  0  0  0  0  0  0  0  0  0
   -1.2177    1.6311    1.1580 H   0  0  0  0  0  0  0  0  0  0  0  0
    0.5617    1.4109   -2.7896 H   0  0  0  0  0  0  0  0  0  0  0  0
    1.6798    0.0090    0.2274 H   0  0  0  0  0  0  0  0  0  0  0  0
    1.9094    1.2674   -0.9963 H   0  0  0  0  0  0  0  0  0  0  0  0
    2.7182   -0.4394   -2.6116 H   0  0  0  0  0  0  0  0  0  0  0  0
    2.4970   -1.7079   -1.3972 H   0  0  0  0  0  0  0  0  0  0  0  0
    4.3691    1.4373   -2.1207 H   0  0  0  0  0  0  0  0  0  0  0  0
    6.5791    1.9323   -1.2246 H   0  0  0  0  0  0  0  0  0  0  0  0
    8.1755    2.4134    0.4730 H   0  0  0  0  0  0  0  0  0  0  0  0
    8.8813    1.4581   -0.8625 H   0  0  0  0  0  0  0  0  0  0  0  0
    9.5883    1.3707    0.7697 H   0  0  0  0  0  0  0  0  0  0  0  0
    6.7372   -3.3868    2.4639 H   0  0  0  0  0  0  0  0  0  0  0  0
    5.0810   -2.7487    2.3261 H   0  0  0  0  0  0  0  0  0  0  0  0
    5.8240   -3.6219    0.9535 H   0  0  0  0  0  0  0  0  0  0  0  0
    4.1526   -2.1026    0.2470 H   0  0  0  0  0  0  0  0  0  0  0  0
   -0.2007   -2.0701   -1.5836 H   0  0  0  0  0  0  0  0  0  0  0  0
   -1.4057   -1.0229   -0.8140 H   0  0  0  0  0  0  0  0  0  0  0  0
    0.0412   -1.5049    0.0816 H   0  0  0  0  0  0  0  0  0  0  0  0
   -5.4196    2.4722    0.9148 H   0  0  0  0  0  0  0  0  0  0  0  0
   -3.6543    2.8859    3.3585 H   0  0  0  0  0  0  0  0  0  0  0  0
   -4.6556    1.4557    3.0339 H   0  0  0  0  0  0  0  0  0  0  0  0
   -5.4130    3.0181    3.3310 H   0  0  0  0  0  0  0  0  0  0  0  0
   -3.5155    4.7593    1.5720 H   0  0  0  0  0  0  0  0  0  0  0  0
   -4.5646    4.6441    0.1408 H   0  0  0  0  0  0  0  0  0  0  0  0
   -5.2742    4.8303    1.7402 H   0  0  0  0  0  0  0  0  0  0  0  0
   -1.0011    3.4139    2.6492 H   0  0  0  0  0  0  0  0  0  0  0  0
  1  2  4  0  0  0  0
  2  3  1  0  0  0  0
  3  4  1  0  0  0  0
  4  5  4  0  0  0  0
  5  6  4  0  0  0  0
  6  7  1  0  0  0  0
  7  8  1  0  0  0  0
  6  9  4  0  0  0  0
  9 10  1  0  0  0  0
 10 11  1  0  0  0  0
  9 12  4  0  0  0  0
  4 13  4  0  0  0  0
 12 13  4  0  0  0  0
  2 14  1  0  0  0  0
  3 14  1  0  0  0  0
 15 16  2  0  0  0  0
 16 17  1  0  0  0  0
 17 18  1  0  0  0  0
 18 19  1  0  0  0  0
 19 20  1  0  0  0  0
 20 21  4  0  0  0  0
 21 22  4  0  0  0  0
 22 23  4  0  0  0  0
 23 24  1  0  0  0  0
 24 25  1  0  0  0  0
 23 26  4  0  0  0  0
 26 27  1  0  0  0  0
 27 28  1  0  0  0  0
 20 29  4  0  0  0  0
 26 29  4  0  0  0  0
 17 30  1  0  0  0  0
  3 31  1  0  0  0  0
 31 32  1  0  0  0  0
 31 33  1  0  0  0  0
  5 34  1  0  0  0  0
  8 35  1  0  0  0  0
  8 36  1  0  0  0  0
  8 37  1  0  0  0  0
 11 38  1  0  0  0  0
 11 39  1  0  0  0  0
 11 40  1  0  0  0  0
 12 41  1  0  0  0  0
 13 42  1  0  0  0  0
 14 43  1  0  0  0  0
 14 44  1  0  0  0  0
 15 45  1  0  0  0  0
 15 46  1  0  0  0  0
  2 47  1  0  0  0  0
 16 48  1  0  0  0  0
 18 49  1  0  0  0  0
 18 50  1  0  0  0  0
 19 51  1  0  0  0  0
 19 52  1  0  0  0  0
 21 53  1  0  0  0  0
 22 54  1  0  0  0  0
 25 55  1  0  0  0  0
 25 56  1  0  0  0  0
 25 57  1  0  0  0  0
 28 58  1  0  0  0  0
 28 59  1  0  0  0  0
 28 60  1  0  0  0  0
 29 61  1  0  0  0  0
 30 62  1  0  0  0  0
 30 63  1  0  0  0  0
 30 64  1  0  0  0  0
 31 65  1  0  0  0  0
 32 66  1  0  0  0  0
 32 67  1  0  0  0  0
 32 68  1  0  0  0  0
 33 69  1  0  0  0  0
 33 70  1  0  0  0  0
 33 71  1  0  0  0  0
  1 72  1  0  0  0  0
M  CHG  1   1   1
M  END
