          22
 
N              2.05711988        0.20405623       -0.02861367
C              2.41131402       -1.07452367       -0.02521095
N              1.29922196       -1.84158718       -0.01351416
C              0.20914295       -1.01587306       -0.00661934
C              0.68863112        0.28323907       -0.01642034
C             -0.20575288        1.43226012       -0.01485846
O              0.14758282        2.58456338       -0.01671813
N             -1.53755021        1.02625406       -0.00776784
C             -2.55341196        2.07282514       -0.00928551
C             -2.03916918       -0.26208427        0.00384573
O             -3.21316385       -0.49827709        0.01231888
N             -1.09653779       -1.32105097        0.00536854
C             -1.58109581       -2.68760766        0.02295697
H              2.68376066        1.00099158       -0.02270700
H              3.41693722       -1.44604833       -0.03373470
H             -2.04623150        3.03427650       -0.02188216
H             -3.18885764        1.96761351       -0.88773756
H             -3.17588036        1.98436094        0.88022325
H             -1.23634889       -3.20505540        0.91842329
H             -1.25701285       -3.22141332       -0.87059254
H             -2.66981162       -2.64493381        0.03493135
H              1.28830792       -2.85220399       -0.00995155
