 xtb: 6.6.1 (8d0f1dd)
          04062411133D

 72 73  0     0  0            999 V2000
   -1.6840    3.4972    0.4807 N   0  0  0  0  0  0  0  0  0  0  0  0
   -2.3533    2.4496    0.6716 C   0  0  0  0  0  0  0  0  0  0  0  0
   -2.9880    1.4874   -0.3413 C   0  0  0  0  0  0  0  0  0  0  0  0
   -3.4702    0.7342    0.9076 C   0  0  0  0  0  0  0  0  0  0  0  0
   -4.3277   -0.3214    1.2796 C   0  0  0  0  0  0  0  0  0  0  0  0
   -5.1289   -1.1471    0.5477 C   0  0  0  0  0  0  0  0  0  0  0  0
   -6.0580   -1.9503    1.0879 O   0  0  0  0  0  0  0  0  0  0  0  0
   -6.3817   -1.8628    2.4577 C   0  0  0  0  0  0  0  0  0  0  0  0
   -5.1417   -1.3356   -0.9244 C   0  0  0  0  0  0  0  0  0  0  0  0
   -6.4017   -1.2121   -1.4022 O   0  0  0  0  0  0  0  0  0  0  0  0
   -6.6983   -1.7166   -2.6847 C   0  0  0  0  0  0  0  0  0  0  0  0
   -4.0662   -1.7265   -1.6131 C   0  0  0  0  0  0  0  0  0  0  0  0
   -2.8510    1.6256    1.7512 C   0  0  0  0  0  0  0  0  0  0  0  0
   -1.9013    0.7688   -1.1973 C   0  0  0  0  0  0  0  0  0  0  0  0
   -1.0206   -0.1067   -0.4184 C   0  0  0  0  0  0  0  0  0  0  0  0
    0.0265    0.4205    0.4786 C   0  0  0  0  0  0  0  0  0  0  0  0
    0.9063   -0.6121    0.9741 N   0  0  0  0  0  0  0  0  0  0  0  0
    2.3067   -0.2671    1.0441 C   0  0  0  0  0  0  0  0  0  0  0  0
    2.9633   -0.3886   -0.3442 C   0  0  0  0  0  0  0  0  0  0  0  0
    4.4232   -0.0520   -0.2767 C   0  0  0  0  0  0  0  0  0  0  0  0
    4.8614    1.2509   -0.4749 C   0  0  0  0  0  0  0  0  0  0  0  0
    6.2074    1.5697   -0.4023 C   0  0  0  0  0  0  0  0  0  0  0  0
    7.1516    0.5894   -0.1240 C   0  0  0  0  0  0  0  0  0  0  0  0
    8.4789    0.7791   -0.0394 O   0  0  0  0  0  0  0  0  0  0  0  0
    9.0103    2.0646   -0.2658 C   0  0  0  0  0  0  0  0  0  0  0  0
    6.7126   -0.7492    0.0922 C   0  0  0  0  0  0  0  0  0  0  0  0
    7.6899   -1.6344    0.3562 O   0  0  0  0  0  0  0  0  0  0  0  0
    7.3615   -2.9877    0.5663 C   0  0  0  0  0  0  0  0  0  0  0  0
    5.3586   -1.0412    0.0140 C   0  0  0  0  0  0  0  0  0  0  0  0
    0.3826   -1.3685    2.0828 C   0  0  0  0  0  0  0  0  0  0  0  0
   -4.0781    2.1200   -1.2175 C   0  0  0  0  0  0  0  0  0  0  0  0
   -5.1286    2.8115   -0.3476 C   0  0  0  0  0  0  0  0  0  0  0  0
   -3.4777    3.1303   -2.1929 C   0  0  0  0  0  0  0  0  0  0  0  0
   -4.4165   -0.3979    2.3576 H   0  0  0  0  0  0  0  0  0  0  0  0
   -5.5601   -2.2159    3.0877 H   0  0  0  0  0  0  0  0  0  0  0  0
   -7.2435   -2.5130    2.5946 H   0  0  0  0  0  0  0  0  0  0  0  0
   -6.6473   -0.8394    2.7368 H   0  0  0  0  0  0  0  0  0  0  0  0
   -6.4228   -2.7728   -2.7611 H   0  0  0  0  0  0  0  0  0  0  0  0
   -7.7756   -1.6115   -2.7969 H   0  0  0  0  0  0  0  0  0  0  0  0
   -6.1929   -1.1496   -3.4707 H   0  0  0  0  0  0  0  0  0  0  0  0
   -4.1048   -1.9481   -2.6660 H   0  0  0  0  0  0  0  0  0  0  0  0
   -2.7967    1.7175    2.8215 H   0  0  0  0  0  0  0  0  0  0  0  0
   -2.4065    0.1998   -1.9778 H   0  0  0  0  0  0  0  0  0  0  0  0
   -1.3203    1.5796   -1.6468 H   0  0  0  0  0  0  0  0  0  0  0  0
   -3.1270   -1.8667   -1.1142 H   0  0  0  0  0  0  0  0  0  0  0  0
   -1.1478   -1.1750   -0.4520 H   0  0  0  0  0  0  0  0  0  0  0  0
   -0.4655    0.9476    1.3258 H   0  0  0  0  0  0  0  0  0  0  0  0
    0.6079    1.1926   -0.0389 H   0  0  0  0  0  0  0  0  0  0  0  0
    2.8027   -0.9570    1.7287 H   0  0  0  0  0  0  0  0  0  0  0  0
    2.4575    0.7528    1.4279 H   0  0  0  0  0  0  0  0  0  0  0  0
    2.4618    0.2836   -1.0412 H   0  0  0  0  0  0  0  0  0  0  0  0
    2.8249   -1.4105   -0.6982 H   0  0  0  0  0  0  0  0  0  0  0  0
    4.1487    2.0295   -0.7004 H   0  0  0  0  0  0  0  0  0  0  0  0
    6.5160    2.5887   -0.5696 H   0  0  0  0  0  0  0  0  0  0  0  0
    8.6399    2.7860    0.4687 H   0  0  0  0  0  0  0  0  0  0  0  0
    8.7811    2.4196   -1.2749 H   0  0  0  0  0  0  0  0  0  0  0  0
   10.0878    1.9586   -0.1559 H   0  0  0  0  0  0  0  0  0  0  0  0
    8.3083   -3.4937    0.7447 H   0  0  0  0  0  0  0  0  0  0  0  0
    6.7145   -3.1115    1.4403 H   0  0  0  0  0  0  0  0  0  0  0  0
    6.8774   -3.4235   -0.3128 H   0  0  0  0  0  0  0  0  0  0  0  0
    5.0157   -2.0522    0.1674 H   0  0  0  0  0  0  0  0  0  0  0  0
   -0.6536   -1.6339    1.8810 H   0  0  0  0  0  0  0  0  0  0  0  0
    0.4188   -0.8090    3.0286 H   0  0  0  0  0  0  0  0  0  0  0  0
    0.9592   -2.2847    2.2013 H   0  0  0  0  0  0  0  0  0  0  0  0
   -4.5699    1.3160   -1.7776 H   0  0  0  0  0  0  0  0  0  0  0  0
   -4.6792    3.6304    0.2099 H   0  0  0  0  0  0  0  0  0  0  0  0
   -5.5793    2.1156    0.3561 H   0  0  0  0  0  0  0  0  0  0  0  0
   -5.9170    3.2191   -0.9747 H   0  0  0  0  0  0  0  0  0  0  0  0
   -2.8574    3.8414   -1.6520 H   0  0  0  0  0  0  0  0  0  0  0  0
   -2.8743    2.6447   -2.9550 H   0  0  0  0  0  0  0  0  0  0  0  0
   -4.2726    3.6773   -2.6934 H   0  0  0  0  0  0  0  0  0  0  0  0
   -1.3688    4.0109    1.2973 H   0  0  0  0  0  0  0  0  0  0  0  0
  1  2  2  0  0  0  0
  2  3  1  0  0  0  0
  3  4  1  0  0  0  0
  4  5  4  0  0  0  0
  5  6  2  0  0  0  0
  6  7  1  0  0  0  0
  7  8  1  0  0  0  0
  6  9  1  0  0  0  0
  9 10  1  0  0  0  0
 10 11  1  0  0  0  0
  9 12  2  0  0  0  0
  2 13  1  0  0  0  0
  4 13  2  0  0  0  0
  3 14  1  0  0  0  0
 14 15  1  0  0  0  0
 15 16  1  0  0  0  0
 16 17  1  0  0  0  0
 17 18  1  0  0  0  0
 18 19  1  0  0  0  0
 19 20  1  0  0  0  0
 20 21  4  0  0  0  0
 21 22  4  0  0  0  0
 22 23  4  0  0  0  0
 23 24  1  0  0  0  0
 24 25  1  0  0  0  0
 23 26  4  0  0  0  0
 26 27  1  0  0  0  0
 27 28  1  0  0  0  0
 20 29  4  0  0  0  0
 26 29  4  0  0  0  0
 17 30  1  0  0  0  0
  3 31  1  0  0  0  0
 31 32  1  0  0  0  0
 31 33  1  0  0  0  0
  5 34  1  0  0  0  0
  8 35  1  0  0  0  0
  8 36  1  0  0  0  0
  8 37  1  0  0  0  0
 11 38  1  0  0  0  0
 11 39  1  0  0  0  0
 11 40  1  0  0  0  0
 12 41  1  0  0  0  0
 13 42  1  0  0  0  0
 14 43  1  0  0  0  0
 14 44  1  0  0  0  0
 12 45  1  0  0  0  0
 15 46  1  0  0  0  0
 16 47  1  0  0  0  0
 16 48  1  0  0  0  0
 18 49  1  0  0  0  0
 18 50  1  0  0  0  0
 19 51  1  0  0  0  0
 19 52  1  0  0  0  0
 21 53  1  0  0  0  0
 22 54  1  0  0  0  0
 25 55  1  0  0  0  0
 25 56  1  0  0  0  0
 25 57  1  0  0  0  0
 28 58  1  0  0  0  0
 28 59  1  0  0  0  0
 28 60  1  0  0  0  0
 29 61  1  0  0  0  0
 30 62  1  0  0  0  0
 30 63  1  0  0  0  0
 30 64  1  0  0  0  0
 31 65  1  0  0  0  0
 32 66  1  0  0  0  0
 32 67  1  0  0  0  0
 32 68  1  0  0  0  0
 33 69  1  0  0  0  0
 33 70  1  0  0  0  0
 33 71  1  0  0  0  0
  1 72  1  0  0  0  0
M  CHG  1   1   1
M  END
