          71
 
N             -1.78954700        2.78359958        2.50492403
C             -1.75435895        2.15577179        1.42571801
C             -2.90942974        2.04195782        0.46703698
C             -3.40351154        0.60446100        0.43522471
C             -4.33662371        0.21506819       -0.52753029
C             -4.84719851       -1.07245778       -0.56486771
O             -5.76992242       -1.52441298       -1.43381194
C             -6.34733600       -0.62635954       -2.35507055
C             -4.39491620       -2.01921205        0.39275569
O             -4.91226222       -3.26891450        0.26974534
C             -4.86204742       -4.19149328        1.19092833
C             -3.46378837       -1.63003178        1.35165712
C             -2.97823717       -0.33426111        1.36845567
C             -2.35407317        2.45631791       -0.92104221
C             -1.45642503        1.40556454       -1.60049588
C             -0.12559704        1.25499432       -0.97019576
N              0.47384629        0.09853825       -0.70465125
C              1.85889453        0.06588183       -0.29770463
C              2.79175760       -0.31924291       -1.46270547
C              4.22513771       -0.23405960       -1.01774131
C              4.92209306        0.95938117       -1.11495322
C              6.23467868        1.05307837       -0.67936020
C              6.87714908       -0.04786617       -0.13138231
O              8.14386471       -0.07263969        0.32205489
C              8.92744771        1.09558302        0.23822520
C              6.16935347       -1.27730618       -0.02530945
O              6.86895333       -2.29532464        0.51373675
C              6.26589851       -3.56161159        0.63210799
C              4.85690469       -1.34604134       -0.46593392
C             -0.18595113       -1.16978576       -0.90226104
C             -4.11751738        2.95351160        0.84332479
C             -4.75949582        2.52013248        2.15932135
C             -3.75410363        4.43399922        0.91274678
H             -4.68309270        0.93496887       -1.24914491
H             -6.84983219        0.19839684       -1.84379462
H             -7.07972782       -1.21096224       -2.90733589
H             -5.60119068       -0.23159998       -3.04940658
H             -4.49884351       -4.00131070        2.18924390
H             -5.25249173       -5.16908504        0.91274224
H             -3.10370528       -2.34114077        2.07787838
H             -2.27452956       -0.05446345        2.13645067
H             -3.19175683        2.66240932       -1.58685493
H             -1.79090368        3.38344970       -0.80747196
H             -1.98305893        0.45502117       -1.65744629
H             -1.29124776        1.75757478       -2.62722217
H             -0.85151915        1.64815208        1.03474321
H              0.46973903        2.14673641       -0.84187358
H              1.97662176       -0.65566897        0.51537820
H              2.14921548        1.05020525        0.07477804
H              2.61891177        0.36924435       -2.29169540
H              2.56129085       -1.33063248       -1.79923801
H              4.44827170        1.82832553       -1.54584813
H              6.75305670        1.99280196       -0.77596349
H              8.49586672        1.91058683        0.82724969
H              9.05266362        1.42014755       -0.79907253
H              9.89748256        0.82650182        0.65166068
H              7.02526733       -4.20678562        1.06959034
H              5.39399470       -3.53099060        1.29346746
H              5.97231179       -3.95935927       -0.34427748
H              4.31447499       -2.27600516       -0.39655979
H             -0.35609364       -1.36714644       -1.96303470
H             -1.14664994       -1.18510304       -0.38255850
H              0.43684099       -1.96387962       -0.49871625
H             -4.86086163        2.82533862        0.04799945
H             -4.05570482        2.64592055        2.97552629
H             -5.07632486        1.48070011        2.12209758
H             -5.63274080        3.13583617        2.35682710
H             -3.00034226        4.60172905        1.67534254
H             -3.39218572        4.80977329       -0.04045654
H             -4.63975557        5.00444831        1.17990976
H             -0.93961503        2.81835180        3.05951153
