 xtb: 6.6.1 (8d0f1dd)
          06052419573D

 25 25  0     0  0            999 V2000
    3.4298    1.6179    0.0209 C   0  0  0  0  0  0  0  0  0  0  0  0
    2.6136    0.4316    0.0067 N   0  0  0  0  0  0  0  0  0  0  0  0
    3.0339   -0.8261    0.0023 C   0  0  0  0  0  0  0  0  0  0  0  0
    1.9866   -1.6683   -0.0013 N   0  0  0  0  0  0  0  0  0  0  0  0
    0.8348   -0.9225    0.0017 C   0  0  0  0  0  0  0  0  0  0  0  0
    1.2468    0.4165    0.0068 C   0  0  0  0  0  0  0  0  0  0  0  0
    0.2629    1.4770   -0.0023 C   0  0  0  0  0  0  0  0  0  0  0  0
    0.5089    2.6666   -0.0117 O   0  0  0  0  0  0  0  0  0  0  0  0
   -1.0231    0.9658   -0.0026 N   0  0  0  0  0  0  0  0  0  0  0  0
   -2.1257    1.9048   -0.0071 C   0  0  0  0  0  0  0  0  0  0  0  0
   -1.3832   -0.4043    0.0005 C   0  0  0  0  0  0  0  0  0  0  0  0
   -2.5609   -0.6897    0.0026 O   0  0  0  0  0  0  0  0  0  0  0  0
   -0.4045   -1.3435   -0.0012 N   0  0  0  0  0  0  0  0  0  0  0  0
   -3.2599   -3.5453   -0.0091 C   0  0  0  0  0  0  0  0  0  0  0  0
    3.9553    1.7045    0.9726 H   0  0  0  0  0  0  0  0  0  0  0  0
    4.1628    1.5840   -0.7846 H   0  0  0  0  0  0  0  0  0  0  0  0
    2.7822    2.4852   -0.1062 H   0  0  0  0  0  0  0  0  0  0  0  0
    4.0638   -1.1289    0.0006 H   0  0  0  0  0  0  0  0  0  0  0  0
   -1.7169    2.9134   -0.0007 H   0  0  0  0  0  0  0  0  0  0  0  0
   -2.7411    1.7498   -0.8947 H   0  0  0  0  0  0  0  0  0  0  0  0
   -2.7533    1.7426    0.8705 H   0  0  0  0  0  0  0  0  0  0  0  0
   -3.0556   -4.0522    0.9125 H   0  0  0  0  0  0  0  0  0  0  0  0
   -3.0608   -4.0348   -0.9418 H   0  0  0  0  0  0  0  0  0  0  0  0
   -3.6605   -2.5481    0.0016 H   0  0  0  0  0  0  0  0  0  0  0  0
    2.0247   -2.6779   -0.0047 H   0  0  0  0  0  0  0  0  0  0  0  0
  1  2  1  0  0  0  0
  2  3  4  0  0  0  0
  3  4  4  0  0  0  0
  4  5  1  0  0  0  0
  2  6  1  0  0  0  0
  5  6  4  0  0  0  0
  6  7  1  0  0  0  0
  7  8  2  0  0  0  0
  7  9  1  0  0  0  0
  9 10  1  0  0  0  0
  9 11  1  0  0  0  0
 11 12  2  0  0  0  0
  5 13  4  0  0  0  0
 11 13  1  0  0  0  0
  1 15  1  0  0  0  0
  1 16  1  0  0  0  0
  1 17  1  0  0  0  0
  3 18  1  0  0  0  0
 10 19  1  0  0  0  0
 10 20  1  0  0  0  0
 10 21  1  0  0  0  0
 14 22  1  0  0  0  0
 14 23  1  0  0  0  0
 14 24  1  0  0  0  0
  4 25  1  0  0  0  0
M  CHG  1   1   1
M  END
