          22
 
C              3.66041863       -0.66816437       -2.70473905
C              4.73313451       -0.45965277       -1.87243916
C              5.40040464        0.79701257       -1.82858142
C              6.48315545        1.00293601       -1.01368612
C              6.96700795       -0.02025564       -0.19264988
O              8.01504915        0.06964446        0.63317976
C              8.74834495        1.27082965        0.70921874
C              6.31483844       -1.29616287       -0.21060739
O              6.86381597       -2.21019235        0.61619771
C              6.33797027       -3.51587300        0.63887380
C              5.23062717       -1.49550163       -1.02609295
H              3.29956800        0.11119953       -3.35046470
H              3.16630015       -1.62190229       -2.75347240
H              5.04425967        1.59290966       -2.46334399
H              6.97081280        1.96466795       -1.01316595
H              8.13065074        2.09557938        1.07433870
H              9.18008904        1.53883985       -0.25763182
H              9.54811103        1.07751499        1.41961347
H              6.95269097       -4.06586211        1.34848065
H              5.29768286       -3.52308462        0.97899337
H              6.40412512       -3.99122263       -0.34421844
H              4.73507212       -2.45224400       -1.06013598
