 xtb: 6.6.1 (8d0f1dd)
          06052419593D

 25 26  0     0  0            999 V2000
    3.0567    1.0330    0.2179 C   0  0  0  0  0  0  0  0  0  0  0  0
    2.2978    1.9237   -0.6370 N   0  0  0  0  0  0  0  0  0  0  0  0
    2.3950   -0.3039    0.1938 C   0  0  0  0  0  0  0  0  0  0  0  0
    0.7539   -2.8003   -0.2870 N   0  0  0  0  0  0  0  0  0  0  0  0
    0.2836   -1.6372   -0.0993 C   0  0  0  0  0  0  0  0  0  0  0  0
    1.0522   -0.3778   -0.0291 C   0  0  0  0  0  0  0  0  0  0  0  0
    0.3116    0.8442   -0.1263 C   0  0  0  0  0  0  0  0  0  0  0  0
    0.9270    2.0091   -0.2665 O   0  0  0  0  0  0  0  0  0  0  0  0
   -1.0105    0.8523    0.0010 N   0  0  0  0  0  0  0  0  0  0  0  0
   -1.7837    2.0801   -0.0032 C   0  0  0  0  0  0  0  0  0  0  0  0
   -1.7740   -0.3455    0.1517 C   0  0  0  0  0  0  0  0  0  0  0  0
   -2.9553   -0.2659    0.3322 O   0  0  0  0  0  0  0  0  0  0  0  0
   -1.0815   -1.5203    0.0456 N   0  0  0  0  0  0  0  0  0  0  0  0
   -1.8439   -2.7575    0.0436 C   0  0  0  0  0  0  0  0  0  0  0  0
    3.1485    1.3890    1.2606 H   0  0  0  0  0  0  0  0  0  0  0  0
    4.0624    0.9758   -0.2041 H   0  0  0  0  0  0  0  0  0  0  0  0
    2.6348    2.8834   -0.6681 H   0  0  0  0  0  0  0  0  0  0  0  0
    2.9834   -1.1804    0.4075 H   0  0  0  0  0  0  0  0  0  0  0  0
   -1.1175    2.9360   -0.0357 H   0  0  0  0  0  0  0  0  0  0  0  0
   -2.4485    2.0873   -0.8677 H   0  0  0  0  0  0  0  0  0  0  0  0
   -2.4039    2.1133    0.8932 H   0  0  0  0  0  0  0  0  0  0  0  0
   -1.4982   -3.4002    0.8523 H   0  0  0  0  0  0  0  0  0  0  0  0
   -1.6799   -3.2790   -0.8994 H   0  0  0  0  0  0  0  0  0  0  0  0
   -2.8977   -2.5224    0.1701 H   0  0  0  0  0  0  0  0  0  0  0  0
    1.7479   -2.9186   -0.4151 H   0  0  0  0  0  0  0  0  0  0  0  0
  1  2  1  0  0  0  0
  1  3  1  0  0  0  0
  4  5  2  0  0  0  0
  3  6  2  0  0  0  0
  5  6  1  0  0  0  0
  6  7  1  0  0  0  0
  2  8  1  0  0  0  0
  7  8  1  0  0  0  0
  7  9  4  0  0  0  0
  9 10  1  0  0  0  0
  9 11  1  0  0  0  0
 11 12  2  0  0  0  0
  5 13  1  0  0  0  0
 11 13  1  0  0  0  0
 13 14  1  0  0  0  0
  1 15  1  0  0  0  0
  1 16  1  0  0  0  0
  2 17  1  0  0  0  0
  3 18  1  0  0  0  0
 10 19  1  0  0  0  0
 10 20  1  0  0  0  0
 10 21  1  0  0  0  0
 14 22  1  0  0  0  0
 14 23  1  0  0  0  0
 14 24  1  0  0  0  0
  4 25  1  0  0  0  0
M  CHG  1   1   1
M  END
