 xtb: 6.6.1 (8d0f1dd)
          06052419583D

 25 25  0     0  0            999 V2000
    3.2334    1.1843    0.0471 C   0  0  0  0  0  0  0  0  0  0  0  0
    2.2751    0.1149   -0.0205 N   0  0  0  0  0  0  0  0  0  0  0  0
    2.5417   -1.1937   -0.0682 C   0  0  0  0  0  0  0  0  0  0  0  0
    1.3863   -1.8985   -0.1211 N   0  0  0  0  0  0  0  0  0  0  0  0
    0.3472   -1.0047   -0.1022 C   0  0  0  0  0  0  0  0  0  0  0  0
    0.9074    0.2692   -0.0381 C   0  0  0  0  0  0  0  0  0  0  0  0
    0.1058    1.4654   -0.0231 C   0  0  0  0  0  0  0  0  0  0  0  0
    0.5219    2.6067   -0.0062 O   0  0  0  0  0  0  0  0  0  0  0  0
   -1.2646    1.1636   -0.0336 N   0  0  0  0  0  0  0  0  0  0  0  0
   -2.1965    2.2829    0.0087 C   0  0  0  0  0  0  0  0  0  0  0  0
   -1.8583   -0.0720   -0.0732 C   0  0  0  0  0  0  0  0  0  0  0  0
   -3.0480   -0.2341   -0.0601 O   0  0  0  0  0  0  0  0  0  0  0  0
   -0.9916   -1.2309   -0.1419 N   0  0  0  0  0  0  0  0  0  0  0  0
   -1.5680   -2.4396   -0.2533 C   0  0  0  0  0  0  0  0  0  0  0  0
    3.7346    1.1863    1.0168 H   0  0  0  0  0  0  0  0  0  0  0  0
    3.9840    1.0701   -0.7346 H   0  0  0  0  0  0  0  0  0  0  0  0
    2.7103    2.1317   -0.0809 H   0  0  0  0  0  0  0  0  0  0  0  0
    3.5206   -1.6287   -0.0692 H   0  0  0  0  0  0  0  0  0  0  0  0
   -1.6178    3.2038    0.0173 H   0  0  0  0  0  0  0  0  0  0  0  0
   -2.8493    2.2529   -0.8640 H   0  0  0  0  0  0  0  0  0  0  0  0
   -2.8169    2.2144    0.9024 H   0  0  0  0  0  0  0  0  0  0  0  0
   -1.5973   -4.9171    1.4493 H   0  0  0  0  0  0  0  0  0  0  0  0
   -0.9758   -3.3323   -0.2885 H   0  0  0  0  0  0  0  0  0  0  0  0
   -2.6410   -2.4709   -0.2783 H   0  0  0  0  0  0  0  0  0  0  0  0
    1.3172   -2.9055   -0.1535 H   0  0  0  0  0  0  0  0  0  0  0  0
  1  2  1  0  0  0  0
  2  3  4  0  0  0  0
  3  4  4  0  0  0  0
  4  5  1  0  0  0  0
  2  6  1  0  0  0  0
  5  6  4  0  0  0  0
  6  7  1  0  0  0  0
  7  8  2  0  0  0  0
  7  9  1  0  0  0  0
  9 10  1  0  0  0  0
  9 11  1  0  0  0  0
 11 12  2  0  0  0  0
  5 13  1  0  0  0  0
 11 13  1  0  0  0  0
 13 14  4  0  0  0  0
  1 15  1  0  0  0  0
  1 16  1  0  0  0  0
  1 17  1  0  0  0  0
  3 18  1  0  0  0  0
 10 19  1  0  0  0  0
 10 20  1  0  0  0  0
 10 21  1  0  0  0  0
 14 23  1  0  0  0  0
 14 24  1  0  0  0  0
  4 25  1  0  0  0  0
M  CHG  1   1   1
M  END
