          22
 
C              2.16511194        1.69439078        0.01945556
N              2.09104831        0.29321235        0.03239732
N              0.86413254       -2.38052023        0.07565859
C              0.17936870       -1.32362718        0.04076395
C              0.83255200       -0.02841800        0.02720719
C              0.03318843        1.16109878        0.00957988
O              0.81212468        2.21664982        0.00478066
N             -1.28328788        1.15082109       -0.00186845
C             -2.08794033        2.35753133       -0.01238176
C             -1.98207442       -0.09344812       -0.00772475
O             -3.17982300       -0.08464434       -0.02953804
N             -1.22050299       -1.24011570        0.01238346
C             -1.95933673       -2.49737406        0.01018895
H              2.68758534        2.07936286        0.90568873
H              2.69829803        2.06336402       -0.86736099
H             -1.43115238        3.22264172        0.00581678
H             -2.71112755        2.37132530       -0.90704608
H             -2.74669210        2.36068133        0.85652408
H             -1.73757524       -3.06533473        0.91463954
H             -1.69851551       -3.08368365       -0.87167578
H             -3.02330562       -2.27184842       -0.01518546
H              0.41097868       -3.28337343        0.08905965
