           9
 
C             -5.36256551        2.89049737        1.61983906
C             -5.40917291        1.86063554        2.44778456
C             -5.14742305        4.30422159        2.03972347
H             -5.48312631        2.73826520        0.55539819
H             -5.57768761        0.85374269        2.10267683
H             -5.30775800        1.99561070        3.51445723
H             -4.98180443        4.37641886        3.11203374
H             -4.29322100        4.73055409        1.51370569
H             -6.01979153        4.90582873        1.78450151
