           6
 
C             -4.96725707       -4.44642207       -1.12508846
O             -5.83975438       -4.71792989       -0.32570968
C             -5.87352097       -4.92690642        1.09486164
H             -6.39053496       -4.07344493        1.53328465
H             -6.43838807       -5.84151554        1.27300992
H             -4.86177035       -5.00935194        1.49418878
