 xtb: 6.6.1 (8d0f1dd)
          04062411123D

 72 73  0     0  0            999 V2000
   -1.5241    1.6608    1.8722 N   0  0  0  0  0  0  0  0  0  0  0  0
   -1.6029    1.4918    0.6674 C   0  0  0  0  0  0  0  0  0  0  0  0
   -2.9059    1.5216   -0.1447 C   0  0  0  0  0  0  0  0  0  0  0  0
   -3.6237    0.1949    0.0661 C   0  0  0  0  0  0  0  0  0  0  0  0
   -4.6217   -0.1866   -0.8320 C   0  0  0  0  0  0  0  0  0  0  0  0
   -5.3138   -1.3798   -0.6871 C   0  0  0  0  0  0  0  0  0  0  0  0
   -6.2875   -1.8201   -1.5035 O   0  0  0  0  0  0  0  0  0  0  0  0
   -6.6954   -1.0296   -2.5957 C   0  0  0  0  0  0  0  0  0  0  0  0
   -5.0054   -2.2426    0.4029 C   0  0  0  0  0  0  0  0  0  0  0  0
   -5.7041   -3.3887    0.4517 O   0  0  0  0  0  0  0  0  0  0  0  0
   -5.4815   -4.2867    1.5149 C   0  0  0  0  0  0  0  0  0  0  0  0
   -4.0416   -1.8369    1.3143 C   0  0  0  0  0  0  0  0  0  0  0  0
   -3.3687   -0.6363    1.1508 C   0  0  0  0  0  0  0  0  0  0  0  0
   -2.4019    1.6526   -1.5919 C   0  0  0  0  0  0  0  0  0  0  0  0
   -1.1365    0.8100   -1.6233 C   0  0  0  0  0  0  0  0  0  0  0  0
   -0.4225    1.1930   -0.3202 C   0  0  0  0  0  0  0  0  0  0  0  0
    0.5072    0.2671    0.2060 N   0  0  0  0  0  0  0  0  0  0  0  0
    1.9044    0.5854    0.2663 C   0  0  0  0  0  0  0  0  0  0  0  0
    2.6573    0.3507   -1.0676 C   0  0  0  0  0  0  0  0  0  0  0  0
    4.1355    0.4176   -0.8324 C   0  0  0  0  0  0  0  0  0  0  0  0
    4.8536    1.5843   -1.0587 C   0  0  0  0  0  0  0  0  0  0  0  0
    6.2127    1.6459   -0.7966 C   0  0  0  0  0  0  0  0  0  0  0  0
    6.8870    0.5417   -0.2895 C   0  0  0  0  0  0  0  0  0  0  0  0
    8.1936    0.4856    0.0104 O   0  0  0  0  0  0  0  0  0  0  0  0
    9.0035    1.6219   -0.1892 C   0  0  0  0  0  0  0  0  0  0  0  0
    6.1587   -0.6610   -0.0511 C   0  0  0  0  0  0  0  0  0  0  0  0
    6.8863   -1.6799    0.4385 O   0  0  0  0  0  0  0  0  0  0  0  0
    6.2617   -2.9121    0.7112 C   0  0  0  0  0  0  0  0  0  0  0  0
    4.8005   -0.6977   -0.3271 C   0  0  0  0  0  0  0  0  0  0  0  0
    0.1458   -1.1212    0.2975 C   0  0  0  0  0  0  0  0  0  0  0  0
   -3.8317    2.6807    0.3056 C   0  0  0  0  0  0  0  0  0  0  0  0
   -4.3528    2.4435    1.7189 C   0  0  0  0  0  0  0  0  0  0  0  0
   -3.1500    4.0468    0.2459 C   0  0  0  0  0  0  0  0  0  0  0  0
   -4.8844    0.4687   -1.6462 H   0  0  0  0  0  0  0  0  0  0  0  0
   -7.0852   -0.0617   -2.2667 H   0  0  0  0  0  0  0  0  0  0  0  0
   -7.4912   -1.5917   -3.0804 H   0  0  0  0  0  0  0  0  0  0  0  0
   -5.8777   -0.8752   -3.3066 H   0  0  0  0  0  0  0  0  0  0  0  0
   -5.7190   -3.8303    2.4802 H   0  0  0  0  0  0  0  0  0  0  0  0
   -6.1533   -5.1240    1.3360 H   0  0  0  0  0  0  0  0  0  0  0  0
   -4.4479   -4.6463    1.5250 H   0  0  0  0  0  0  0  0  0  0  0  0
   -3.8083   -2.4487    2.1702 H   0  0  0  0  0  0  0  0  0  0  0  0
   -2.6574   -0.3442    1.9070 H   0  0  0  0  0  0  0  0  0  0  0  0
   -3.1317    1.3193   -2.3249 H   0  0  0  0  0  0  0  0  0  0  0  0
   -2.1549    2.6912   -1.8085 H   0  0  0  0  0  0  0  0  0  0  0  0
   -1.3927   -0.2497   -1.6212 H   0  0  0  0  0  0  0  0  0  0  0  0
   -0.5131    1.0164   -2.4929 H   0  0  0  0  0  0  0  0  0  0  0  0
    0.5694    0.9698    2.9468 H   0  0  0  0  0  0  0  0  0  0  0  0
    0.0809    2.1581   -0.4475 H   0  0  0  0  0  0  0  0  0  0  0  0
    2.3619   -0.0412    1.0362 H   0  0  0  0  0  0  0  0  0  0  0  0
    2.0239    1.6292    0.5642 H   0  0  0  0  0  0  0  0  0  0  0  0
    2.3514    1.1018   -1.7963 H   0  0  0  0  0  0  0  0  0  0  0  0
    2.3895   -0.6352   -1.4508 H   0  0  0  0  0  0  0  0  0  0  0  0
    4.3541    2.4566   -1.4512 H   0  0  0  0  0  0  0  0  0  0  0  0
    6.7440    2.5634   -0.9901 H   0  0  0  0  0  0  0  0  0  0  0  0
    8.6641    2.4663    0.4178 H   0  0  0  0  0  0  0  0  0  0  0  0
    9.0284    1.9146   -1.2429 H   0  0  0  0  0  0  0  0  0  0  0  0
   10.0021    1.3271    0.1277 H   0  0  0  0  0  0  0  0  0  0  0  0
    7.0482   -3.5598    1.0937 H   0  0  0  0  0  0  0  0  0  0  0  0
    5.4801   -2.8054    1.4700 H   0  0  0  0  0  0  0  0  0  0  0  0
    5.8361   -3.3551   -0.1943 H   0  0  0  0  0  0  0  0  0  0  0  0
    4.2428   -1.6058   -0.1585 H   0  0  0  0  0  0  0  0  0  0  0  0
    0.4105   -1.6848   -0.6059 H   0  0  0  0  0  0  0  0  0  0  0  0
   -0.9258   -1.2146    0.4635 H   0  0  0  0  0  0  0  0  0  0  0  0
    0.6659   -1.5710    1.1435 H   0  0  0  0  0  0  0  0  0  0  0  0
   -4.6804    2.6848   -0.3889 H   0  0  0  0  0  0  0  0  0  0  0  0
   -3.5036    2.3275    2.3946 H   0  0  0  0  0  0  0  0  0  0  0  0
   -4.9661    1.5478    1.7751 H   0  0  0  0  0  0  0  0  0  0  0  0
   -4.9463    3.2917    2.0486 H   0  0  0  0  0  0  0  0  0  0  0  0
   -2.2747    4.0630    0.8909 H   0  0  0  0  0  0  0  0  0  0  0  0
   -2.8528    4.3192   -0.7635 H   0  0  0  0  0  0  0  0  0  0  0  0
   -3.8418    4.8075    0.5981 H   0  0  0  0  0  0  0  0  0  0  0  0
   -0.1746    1.2686    2.5893 H   0  0  0  0  0  0  0  0  0  0  0  0
  1  2  2  0  0  0  0
  2  3  1  0  0  0  0
  3  4  1  0  0  0  0
  4  5  4  0  0  0  0
  5  6  4  0  0  0  0
  6  7  1  0  0  0  0
  7  8  1  0  0  0  0
  6  9  4  0  0  0  0
  9 10  1  0  0  0  0
 10 11  1  0  0  0  0
  9 12  4  0  0  0  0
  4 13  4  0  0  0  0
 12 13  4  0  0  0  0
  3 14  1  0  0  0  0
 14 15  1  0  0  0  0
  2 16  1  0  0  0  0
 15 16  1  0  0  0  0
 16 17  1  0  0  0  0
 17 18  1  0  0  0  0
 18 19  1  0  0  0  0
 19 20  1  0  0  0  0
 20 21  4  0  0  0  0
 21 22  4  0  0  0  0
 22 23  4  0  0  0  0
 23 24  1  0  0  0  0
 24 25  1  0  0  0  0
 23 26  4  0  0  0  0
 26 27  1  0  0  0  0
 27 28  1  0  0  0  0
 20 29  4  0  0  0  0
 26 29  4  0  0  0  0
 17 30  1  0  0  0  0
  3 31  1  0  0  0  0
 31 32  1  0  0  0  0
 31 33  1  0  0  0  0
  5 34  1  0  0  0  0
  8 35  1  0  0  0  0
  8 36  1  0  0  0  0
  8 37  1  0  0  0  0
 11 38  1  0  0  0  0
 11 39  1  0  0  0  0
 11 40  1  0  0  0  0
 12 41  1  0  0  0  0
 13 42  1  0  0  0  0
 14 43  1  0  0  0  0
 14 44  1  0  0  0  0
 15 45  1  0  0  0  0
 15 46  1  0  0  0  0
 16 48  1  0  0  0  0
 18 49  1  0  0  0  0
 18 50  1  0  0  0  0
 19 51  1  0  0  0  0
 19 52  1  0  0  0  0
 21 53  1  0  0  0  0
 22 54  1  0  0  0  0
 25 55  1  0  0  0  0
 25 56  1  0  0  0  0
 25 57  1  0  0  0  0
 28 58  1  0  0  0  0
 28 59  1  0  0  0  0
 28 60  1  0  0  0  0
 29 61  1  0  0  0  0
 30 62  1  0  0  0  0
 30 63  1  0  0  0  0
 30 64  1  0  0  0  0
 31 65  1  0  0  0  0
 32 66  1  0  0  0  0
 32 67  1  0  0  0  0
 32 68  1  0  0  0  0
 33 69  1  0  0  0  0
 33 70  1  0  0  0  0
 33 71  1  0  0  0  0
 47 72  1  0  0  0  0
M  CHG  1   1   1
M  END
