 xtb: 6.6.1 (8d0f1dd)
          06052419593D

 25 26  0     0  0            999 V2000
    2.8808    1.1384    0.0802 C   0  0  0  0  0  0  0  0  0  0  0  0
    1.9425    0.0295   -0.0003 N   0  0  0  0  0  0  0  0  0  0  0  0
    2.4499   -1.1882   -0.0362 C   0  0  0  0  0  0  0  0  0  0  0  0
    1.7934   -2.3858   -0.0708 N   0  0  0  0  0  0  0  0  0  0  0  0
    0.5080   -2.7766   -0.0244 C   0  0  0  0  0  0  0  0  0  0  0  0
    0.5777    0.3110   -0.0056 C   0  0  0  0  0  0  0  0  0  0  0  0
   -0.0102    1.6538   -0.0309 C   0  0  0  0  0  0  0  0  0  0  0  0
    0.4914    2.7561   -0.0622 O   0  0  0  0  0  0  0  0  0  0  0  0
   -1.3616    1.4278   -0.0177 N   0  0  0  0  0  0  0  0  0  0  0  0
   -2.4113    2.4013   -0.0414 C   0  0  0  0  0  0  0  0  0  0  0  0
   -0.4852   -0.5738    0.0069 C   0  0  0  0  0  0  0  0  0  0  0  0
   -1.6606    0.0878    0.0026 O   0  0  0  0  0  0  0  0  0  0  0  0
   -0.5337   -1.9552    0.0225 N   0  0  0  0  0  0  0  0  0  0  0  0
   -1.8436   -2.6006    0.0443 C   0  0  0  0  0  0  0  0  0  0  0  0
    3.3699    1.1443    1.0551 H   0  0  0  0  0  0  0  0  0  0  0  0
    3.6381    1.0476   -0.6969 H   0  0  0  0  0  0  0  0  0  0  0  0
    2.3517    2.0818   -0.0479 H   0  0  0  0  0  0  0  0  0  0  0  0
    3.5289   -1.2506   -0.0327 H   0  0  0  0  0  0  0  0  0  0  0  0
   -1.9179    3.3713   -0.0899 H   0  0  0  0  0  0  0  0  0  0  0  0
   -3.0478    2.2590   -0.9166 H   0  0  0  0  0  0  0  0  0  0  0  0
   -3.0194    2.3365    0.8633 H   0  0  0  0  0  0  0  0  0  0  0  0
   -1.8389   -3.3820    0.8027 H   0  0  0  0  0  0  0  0  0  0  0  0
   -2.0447   -3.0604   -0.9251 H   0  0  0  0  0  0  0  0  0  0  0  0
   -2.6215   -1.8746    0.2675 H   0  0  0  0  0  0  0  0  0  0  0  0
    2.4247   -3.1799   -0.1154 H   0  0  0  0  0  0  0  0  0  0  0  0
  1  2  1  0  0  0  0
  2  3  4  0  0  0  0
  3  4  1  0  0  0  0
  4  5  4  0  0  0  0
  2  6  1  0  0  0  0
  6  7  1  0  0  0  0
  7  8  2  0  0  0  0
  7  9  1  0  0  0  0
  9 10  1  0  0  0  0
  6 11  4  0  0  0  0
  9 12  1  0  0  0  0
 11 12  1  0  0  0  0
  5 13  4  0  0  0  0
 11 13  1  0  0  0  0
 13 14  1  0  0  0  0
  1 15  1  0  0  0  0
  1 16  1  0  0  0  0
  1 17  1  0  0  0  0
  3 18  1  0  0  0  0
 10 19  1  0  0  0  0
 10 20  1  0  0  0  0
 10 21  1  0  0  0  0
 14 22  1  0  0  0  0
 14 23  1  0  0  0  0
 14 24  1  0  0  0  0
  4 25  1  0  0  0  0
M  CHG  1   1   1
M  END
