 xtb: 6.6.1 (8d0f1dd)
          06052419573D

 25 25  0     0  0            999 V2000
    3.0240    1.1727   -0.0153 C   0  0  0  0  0  0  0  0  0  0  0  0
    2.1825    0.1467   -0.0107 N   0  0  0  0  0  0  0  0  0  0  0  0
    2.4779   -1.1748   -0.0222 C   0  0  0  0  0  0  0  0  0  0  0  0
    1.3297   -1.9061   -0.0115 N   0  0  0  0  0  0  0  0  0  0  0  0
    0.2768   -1.0458    0.0061 C   0  0  0  0  0  0  0  0  0  0  0  0
    0.7889    0.2405    0.0072 C   0  0  0  0  0  0  0  0  0  0  0  0
   -0.0614    1.4079    0.0145 C   0  0  0  0  0  0  0  0  0  0  0  0
    0.3108    2.5565    0.0209 O   0  0  0  0  0  0  0  0  0  0  0  0
   -1.4109    1.0465    0.0098 N   0  0  0  0  0  0  0  0  0  0  0  0
   -2.3920    2.1221    0.0122 C   0  0  0  0  0  0  0  0  0  0  0  0
   -1.9479   -0.2266    0.0208 C   0  0  0  0  0  0  0  0  0  0  0  0
   -3.1298   -0.4268    0.0312 O   0  0  0  0  0  0  0  0  0  0  0  0
   -1.0391   -1.3094    0.0159 N   0  0  0  0  0  0  0  0  0  0  0  0
   -1.5592   -2.6612    0.0369 C   0  0  0  0  0  0  0  0  0  0  0  0
    4.1060    1.0079   -0.0399 H   0  0  0  0  0  0  0  0  0  0  0  0
    5.8639    1.0305   -0.1491 H   0  0  0  0  0  0  0  0  0  0  0  0
    2.6153    2.1682   -0.0076 H   0  0  0  0  0  0  0  0  0  0  0  0
    3.4652   -1.5891   -0.0372 H   0  0  0  0  0  0  0  0  0  0  0  0
   -1.8575    3.0686    0.0164 H   0  0  0  0  0  0  0  0  0  0  0  0
   -3.0247    2.0476   -0.8725 H   0  0  0  0  0  0  0  0  0  0  0  0
   -3.0279    2.0410    0.8937 H   0  0  0  0  0  0  0  0  0  0  0  0
   -1.2388   -3.1798    0.9408 H   0  0  0  0  0  0  0  0  0  0  0  0
   -1.2342   -3.2103   -0.8469 H   0  0  0  0  0  0  0  0  0  0  0  0
   -2.6468   -2.5937    0.0331 H   0  0  0  0  0  0  0  0  0  0  0  0
    1.2896   -2.9148   -0.0156 H   0  0  0  0  0  0  0  0  0  0  0  0
  1  2  4  0  0  0  0
  2  3  4  0  0  0  0
  3  4  4  0  0  0  0
  4  5  1  0  0  0  0
  2  6  1  0  0  0  0
  5  6  4  0  0  0  0
  6  7  1  0  0  0  0
  7  8  2  0  0  0  0
  7  9  1  0  0  0  0
  9 10  1  0  0  0  0
  9 11  1  0  0  0  0
 11 12  2  0  0  0  0
  5 13  4  0  0  0  0
 11 13  1  0  0  0  0
 13 14  1  0  0  0  0
  1 15  1  0  0  0  0
  1 17  1  0  0  0  0
  3 18  1  0  0  0  0
 10 19  1  0  0  0  0
 10 20  1  0  0  0  0
 10 21  1  0  0  0  0
 14 22  1  0  0  0  0
 14 23  1  0  0  0  0
 14 24  1  0  0  0  0
  4 25  1  0  0  0  0
M  CHG  1   1   1
M  END
