 xtb: 6.6.1 (8d0f1dd)
          06052419573D

 25 25  0     0  0            999 V2000
    3.2527    1.2481    0.0257 C   0  0  0  0  0  0  0  0  0  0  0  0
    2.3235    0.1491    0.0496 N   0  0  0  0  0  0  0  0  0  0  0  0
    2.6180   -1.1384    0.0874 C   0  0  0  0  0  0  0  0  0  0  0  0
    1.4919   -1.8735    0.1203 N   0  0  0  0  0  0  0  0  0  0  0  0
    0.4229   -1.0076    0.0997 C   0  0  0  0  0  0  0  0  0  0  0  0
    0.9564    0.2764    0.0555 C   0  0  0  0  0  0  0  0  0  0  0  0
    0.1227    1.4597    0.0138 C   0  0  0  0  0  0  0  0  0  0  0  0
    0.5168    2.6020   -0.0233 O   0  0  0  0  0  0  0  0  0  0  0  0
   -1.2325    1.1164    0.0188 N   0  0  0  0  0  0  0  0  0  0  0  0
   -2.1947    2.2152   -0.0328 C   0  0  0  0  0  0  0  0  0  0  0  0
   -1.8025   -0.1263    0.0583 C   0  0  0  0  0  0  0  0  0  0  0  0
   -2.9819   -0.3217    0.0500 O   0  0  0  0  0  0  0  0  0  0  0  0
   -0.9019   -1.2765    0.1150 N   0  0  0  0  0  0  0  0  0  0  0  0
   -1.4585   -2.4974    0.1896 C   0  0  0  0  0  0  0  0  0  0  0  0
    3.7685    1.3282    0.9837 H   0  0  0  0  0  0  0  0  0  0  0  0
    3.9925    1.1002   -0.7603 H   0  0  0  0  0  0  0  0  0  0  0  0
    2.7003    2.1702   -0.1543 H   0  0  0  0  0  0  0  0  0  0  0  0
    3.6105   -1.5497    0.0897 H   0  0  0  0  0  0  0  0  0  0  0  0
   -1.6392    3.1494   -0.0256 H   0  0  0  0  0  0  0  0  0  0  0  0
   -2.7926    2.1393   -0.9398 H   0  0  0  0  0  0  0  0  0  0  0  0
   -2.8593    2.1629    0.8279 H   0  0  0  0  0  0  0  0  0  0  0  0
   -0.8512   -3.3784    0.2184 H   0  0  0  0  0  0  0  0  0  0  0  0
   -2.8295   -4.6977   -1.3898 H   0  0  0  0  0  0  0  0  0  0  0  0
   -2.5285   -2.5491    0.2126 H   0  0  0  0  0  0  0  0  0  0  0  0
    1.4559   -2.8828    0.1409 H   0  0  0  0  0  0  0  0  0  0  0  0
  1  2  1  0  0  0  0
  2  3  4  0  0  0  0
  3  4  4  0  0  0  0
  4  5  1  0  0  0  0
  2  6  1  0  0  0  0
  5  6  4  0  0  0  0
  6  7  1  0  0  0  0
  7  8  2  0  0  0  0
  7  9  1  0  0  0  0
  9 10  1  0  0  0  0
  9 11  1  0  0  0  0
 11 12  2  0  0  0  0
  5 13  1  0  0  0  0
 11 13  1  0  0  0  0
 13 14  4  0  0  0  0
  1 15  1  0  0  0  0
  1 16  1  0  0  0  0
  1 17  1  0  0  0  0
  3 18  1  0  0  0  0
 10 19  1  0  0  0  0
 10 20  1  0  0  0  0
 10 21  1  0  0  0  0
 14 22  1  0  0  0  0
 14 24  1  0  0  0  0
  4 25  1  0  0  0  0
M  CHG  1   1   1
M  END
