 xtb: 6.6.1 (8d0f1dd)
          06052419583D

 25 26  0     0  0            999 V2000
    3.1038    1.2195   -0.0500 C   0  0  0  0  0  0  0  0  0  0  0  0
    2.1764    0.1212   -0.0671 N   0  0  0  0  0  0  0  0  0  0  0  0
    2.5007   -1.1862   -0.0596 C   0  0  0  0  0  0  0  0  0  0  0  0
    1.3729   -1.9339   -0.0288 N   0  0  0  0  0  0  0  0  0  0  0  0
    0.3061   -1.0930   -0.0139 C   0  0  0  0  0  0  0  0  0  0  0  0
    0.8006    0.2165   -0.0374 C   0  0  0  0  0  0  0  0  0  0  0  0
   -0.0840    1.2890   -0.0323 C   0  0  0  0  0  0  0  0  0  0  0  0
    0.3233    2.5716   -0.0153 O   0  0  0  0  0  0  0  0  0  0  0  0
   -1.4328    1.0058   -0.0227 N   0  0  0  0  0  0  0  0  0  0  0  0
   -2.3581    1.9782   -0.0568 C   0  0  0  0  0  0  0  0  0  0  0  0
   -1.9468   -0.3391    0.0563 C   0  0  0  0  0  0  0  0  0  0  0  0
   -3.1297   -0.5330    0.1171 O   0  0  0  0  0  0  0  0  0  0  0  0
   -1.0230   -1.3652    0.0458 N   0  0  0  0  0  0  0  0  0  0  0  0
   -1.4991   -2.7359    0.0928 C   0  0  0  0  0  0  0  0  0  0  0  0
    3.5066    1.3641    0.9549 H   0  0  0  0  0  0  0  0  0  0  0  0
    3.9282    1.0219   -0.7336 H   0  0  0  0  0  0  0  0  0  0  0  0
    2.5865    2.1265   -0.3531 H   0  0  0  0  0  0  0  0  0  0  0  0
    3.4975   -1.5722   -0.0745 H   0  0  0  0  0  0  0  0  0  0  0  0
   -0.4274    3.1368    0.2298 H   0  0  0  0  0  0  0  0  0  0  0  0
   -2.1146    2.9916   -0.3028 H   0  0  0  0  0  0  0  0  0  0  0  0
   -3.3754    1.6983    0.0901 H   0  0  0  0  0  0  0  0  0  0  0  0
   -1.1427   -3.2290    0.9974 H   0  0  0  0  0  0  0  0  0  0  0  0
   -1.1653   -3.2818   -0.7899 H   0  0  0  0  0  0  0  0  0  0  0  0
   -2.5873   -2.7111    0.1069 H   0  0  0  0  0  0  0  0  0  0  0  0
    1.3441   -2.9423   -0.0219 H   0  0  0  0  0  0  0  0  0  0  0  0
  1  2  1  0  0  0  0
  2  3  4  0  0  0  0
  3  4  4  0  0  0  0
  4  5  1  0  0  0  0
  2  6  1  0  0  0  0
  5  6  4  0  0  0  0
  6  7  4  0  0  0  0
  7  8  1  0  0  0  0
  7  9  1  0  0  0  0
  9 10  4  0  0  0  0
  9 11  1  0  0  0  0
 11 12  2  0  0  0  0
  5 13  1  0  0  0  0
 11 13  1  0  0  0  0
 13 14  1  0  0  0  0
  1 15  1  0  0  0  0
  1 16  1  0  0  0  0
  1 17  1  0  0  0  0
  3 18  1  0  0  0  0
  8 19  1  0  0  0  0
 10 20  1  0  0  0  0
 10 21  1  0  0  0  0
 14 22  1  0  0  0  0
 14 23  1  0  0  0  0
 14 24  1  0  0  0  0
  4 25  1  0  0  0  0
M  CHG  1   1   1
M  END
