 xtb: 6.6.1 (8d0f1dd)
          06052419583D

 25 25  0     0  0            999 V2000
    3.1598    1.2559    0.0155 C   0  0  0  0  0  0  0  0  0  0  0  0
    2.2217    0.1679   -0.0071 N   0  0  0  0  0  0  0  0  0  0  0  0
    2.5318   -1.1309   -0.0227 C   0  0  0  0  0  0  0  0  0  0  0  0
    1.3757   -1.8339   -0.0193 N   0  0  0  0  0  0  0  0  0  0  0  0
    0.3177   -0.9746   -0.0016 C   0  0  0  0  0  0  0  0  0  0  0  0
    0.8545    0.3076    0.0074 C   0  0  0  0  0  0  0  0  0  0  0  0
    0.0077    1.4801    0.0033 C   0  0  0  0  0  0  0  0  0  0  0  0
    0.3824    2.6291   -0.0073 O   0  0  0  0  0  0  0  0  0  0  0  0
   -1.3446    1.1320    0.0070 N   0  0  0  0  0  0  0  0  0  0  0  0
   -2.3152    2.2155    0.0039 C   0  0  0  0  0  0  0  0  0  0  0  0
   -1.8954   -0.1390    0.0078 C   0  0  0  0  0  0  0  0  0  0  0  0
   -3.0827   -0.3184    0.0102 O   0  0  0  0  0  0  0  0  0  0  0  0
   -1.0024   -1.2262    0.0036 N   0  0  0  0  0  0  0  0  0  0  0  0
   -1.5333   -2.5726    0.0008 C   0  0  0  0  0  0  0  0  0  0  0  0
    3.6037    1.3495    1.0089 H   0  0  0  0  0  0  0  0  0  0  0  0
    3.9581    1.0695   -0.7011 H   0  0  0  0  0  0  0  0  0  0  0  0
    2.6425    2.1838   -0.2268 H   0  0  0  0  0  0  0  0  0  0  0  0
    4.6610   -3.6596   -0.0312 H   0  0  0  0  0  0  0  0  0  0  0  0
   -1.7744    3.1596    0.0116 H   0  0  0  0  0  0  0  0  0  0  0  0
   -2.9451    2.1471   -0.8841 H   0  0  0  0  0  0  0  0  0  0  0  0
   -2.9585    2.1393    0.8814 H   0  0  0  0  0  0  0  0  0  0  0  0
   -1.2065   -3.1121    0.8909 H   0  0  0  0  0  0  0  0  0  0  0  0
   -1.2119   -3.1070   -0.8944 H   0  0  0  0  0  0  0  0  0  0  0  0
   -2.6205   -2.5021    0.0043 H   0  0  0  0  0  0  0  0  0  0  0  0
    1.3344   -2.8419   -0.0298 H   0  0  0  0  0  0  0  0  0  0  0  0
  1  2  1  0  0  0  0
  2  3  4  0  0  0  0
  3  4  4  0  0  0  0
  4  5  1  0  0  0  0
  2  6  1  0  0  0  0
  5  6  4  0  0  0  0
  6  7  1  0  0  0  0
  7  8  2  0  0  0  0
  7  9  1  0  0  0  0
  9 10  1  0  0  0  0
  9 11  1  0  0  0  0
 11 12  2  0  0  0  0
  5 13  4  0  0  0  0
 11 13  1  0  0  0  0
 13 14  1  0  0  0  0
  1 15  1  0  0  0  0
  1 16  1  0  0  0  0
  1 17  1  0  0  0  0
 10 19  1  0  0  0  0
 10 20  1  0  0  0  0
 10 21  1  0  0  0  0
 14 22  1  0  0  0  0
 14 23  1  0  0  0  0
 14 24  1  0  0  0  0
  4 25  1  0  0  0  0
M  CHG  1   1   1
M  END
