 xtb: 6.6.1 (8d0f1dd)
          06052419593D

 25 26  0     0  0            999 V2000
    3.2860    0.9317   -0.0383 C   0  0  0  0  0  0  0  0  0  0  0  0
    2.3787   -0.0434    0.0073 N   0  0  0  0  0  0  0  0  0  0  0  0
    2.5879   -1.3714    0.1427 C   0  0  0  0  0  0  0  0  0  0  0  0
    1.3882   -2.0417    0.1380 N   0  0  0  0  0  0  0  0  0  0  0  0
    0.3984   -1.1457    0.0014 C   0  0  0  0  0  0  0  0  0  0  0  0
    0.9914    0.1295   -0.0561 C   0  0  0  0  0  0  0  0  0  0  0  0
    0.1907    1.2646   -0.0215 C   0  0  0  0  0  0  0  0  0  0  0  0
    0.6358    2.5095    0.0904 O   0  0  0  0  0  0  0  0  0  0  0  0
   -1.1555    1.0643   -0.0680 N   0  0  0  0  0  0  0  0  0  0  0  0
   -2.0694    2.1965   -0.0599 C   0  0  0  0  0  0  0  0  0  0  0  0
   -1.7795   -0.1915   -0.0922 C   0  0  0  0  0  0  0  0  0  0  0  0
   -2.9717   -0.2899   -0.1376 O   0  0  0  0  0  0  0  0  0  0  0  0
   -0.9446   -1.3129   -0.0418 N   0  0  0  0  0  0  0  0  0  0  0  0
   -1.5432   -2.6336   -0.0140 C   0  0  0  0  0  0  0  0  0  0  0  0
    4.3115    0.6899    0.1218 H   0  0  0  0  0  0  0  0  0  0  0  0
    3.0513    1.8854   -0.4642 H   0  0  0  0  0  0  0  0  0  0  0  0
    1.5916    2.5180    0.2821 H   0  0  0  0  0  0  0  0  0  0  0  0
    3.5442   -1.8371    0.2324 H   0  0  0  0  0  0  0  0  0  0  0  0
   -1.4980    3.1187   -0.0479 H   0  0  0  0  0  0  0  0  0  0  0  0
   -2.7017    2.1558   -0.9465 H   0  0  0  0  0  0  0  0  0  0  0  0
   -2.7129    2.1397    0.8178 H   0  0  0  0  0  0  0  0  0  0  0  0
   -1.2979   -3.1438    0.9180 H   0  0  0  0  0  0  0  0  0  0  0  0
   -1.1992   -3.2224   -0.8645 H   0  0  0  0  0  0  0  0  0  0  0  0
   -2.6229   -2.5087   -0.0786 H   0  0  0  0  0  0  0  0  0  0  0  0
    1.3013   -3.0432    0.2105 H   0  0  0  0  0  0  0  0  0  0  0  0
  1  2  4  0  0  0  0
  2  3  4  0  0  0  0
  3  4  1  0  0  0  0
  4  5  4  0  0  0  0
  2  6  1  0  0  0  0
  5  6  4  0  0  0  0
  6  7  4  0  0  0  0
  7  8  1  0  0  0  0
  7  9  4  0  0  0  0
  9 10  1  0  0  0  0
  9 11  1  0  0  0  0
 11 12  2  0  0  0  0
  5 13  1  0  0  0  0
 11 13  1  0  0  0  0
 13 14  1  0  0  0  0
  1 15  1  0  0  0  0
  1 16  1  0  0  0  0
  8 17  1  0  0  0  0
  3 18  1  0  0  0  0
 10 19  1  0  0  0  0
 10 20  1  0  0  0  0
 10 21  1  0  0  0  0
 14 22  1  0  0  0  0
 14 23  1  0  0  0  0
 14 24  1  0  0  0  0
  4 25  1  0  0  0  0
M  CHG  1   1   1
M  END
