 xtb: 6.6.1 (8d0f1dd)
          06052419583D

 25 26  0     0  0            999 V2000
    3.2106    0.9379   -0.0899 C   0  0  0  0  0  0  0  0  0  0  0  0
    2.2932   -0.0262   -0.0345 N   0  0  0  0  0  0  0  0  0  0  0  0
    2.5267   -1.3720    0.0163 C   0  0  0  0  0  0  0  0  0  0  0  0
    1.3304   -2.0406    0.0652 N   0  0  0  0  0  0  0  0  0  0  0  0
    0.3343   -1.1405    0.0460 C   0  0  0  0  0  0  0  0  0  0  0  0
    0.9047    0.1469   -0.0182 C   0  0  0  0  0  0  0  0  0  0  0  0
    0.0763    1.2452   -0.0504 C   0  0  0  0  0  0  0  0  0  0  0  0
    2.8030    2.2202   -0.1435 O   0  0  0  0  0  0  0  0  0  0  0  0
   -1.2728    1.0221   -0.0170 N   0  0  0  0  0  0  0  0  0  0  0  0
   -2.1583    2.1708   -0.0694 C   0  0  0  0  0  0  0  0  0  0  0  0
   -1.8743   -0.2309    0.0429 C   0  0  0  0  0  0  0  0  0  0  0  0
   -3.0654   -0.3795    0.0669 O   0  0  0  0  0  0  0  0  0  0  0  0
   -1.0075   -1.3349    0.0783 N   0  0  0  0  0  0  0  0  0  0  0  0
   -1.5628   -2.6703    0.1440 C   0  0  0  0  0  0  0  0  0  0  0  0
    4.2516    0.6619   -0.0975 H   0  0  0  0  0  0  0  0  0  0  0  0
    3.5324    2.8437   -0.1725 H   0  0  0  0  0  0  0  0  0  0  0  0
    0.4116    2.2651   -0.0999 H   0  0  0  0  0  0  0  0  0  0  0  0
    3.4918   -1.8246    0.0213 H   0  0  0  0  0  0  0  0  0  0  0  0
   -1.8667    2.9018    0.6838 H   0  0  0  0  0  0  0  0  0  0  0  0
   -2.1202    2.6332   -1.0575 H   0  0  0  0  0  0  0  0  0  0  0  0
   -3.1752    1.8328    0.1240 H   0  0  0  0  0  0  0  0  0  0  0  0
   -1.2309   -3.1748    1.0522 H   0  0  0  0  0  0  0  0  0  0  0  0
   -1.2691   -3.2480   -0.7335 H   0  0  0  0  0  0  0  0  0  0  0  0
   -2.6476   -2.5773    0.1630 H   0  0  0  0  0  0  0  0  0  0  0  0
    1.2444   -3.0437    0.1109 H   0  0  0  0  0  0  0  0  0  0  0  0
  1  2  4  0  0  0  0
  2  3  1  0  0  0  0
  3  4  1  0  0  0  0
  4  5  4  0  0  0  0
  2  6  1  0  0  0  0
  5  6  4  0  0  0  0
  6  7  4  0  0  0  0
  1  8  1  0  0  0  0
  7  9  4  0  0  0  0
  9 10  1  0  0  0  0
  9 11  1  0  0  0  0
 11 12  2  0  0  0  0
  5 13  1  0  0  0  0
 11 13  1  0  0  0  0
 13 14  1  0  0  0  0
  1 15  1  0  0  0  0
  8 16  1  0  0  0  0
  7 17  1  0  0  0  0
  3 18  1  0  0  0  0
 10 19  1  0  0  0  0
 10 20  1  0  0  0  0
 10 21  1  0  0  0  0
 14 22  1  0  0  0  0
 14 23  1  0  0  0  0
 14 24  1  0  0  0  0
  4 25  1  0  0  0  0
M  CHG  1   1   1
M  END
