 xtb: 6.6.1 (8d0f1dd)
          04062411163D

 72 72  0     0  0            999 V2000
   -1.7444    2.5651    2.0551 N   0  0  0  0  0  0  0  0  0  0  0  0
   -1.9783    1.7017    1.1801 C   0  0  0  0  0  0  0  0  0  0  0  0
   -3.0912    1.8072    0.1714 C   0  0  0  0  0  0  0  0  0  0  0  0
   -3.8518    0.4887    0.1373 C   0  0  0  0  0  0  0  0  0  0  0  0
   -4.7132    0.2349   -1.0077 C   0  0  0  0  0  0  0  0  0  0  0  0
   -3.5512   -2.7354   -0.6798 C   0  0  0  0  0  0  0  0  0  0  0  0
   -2.7711   -1.8795   -1.0816 O   0  0  0  0  0  0  0  0  0  0  0  0
   -5.9468   -0.2557   -0.9206 C   0  0  0  0  0  0  0  0  0  0  0  0
   -4.3777   -2.6690    0.5043 C   0  0  0  0  0  0  0  0  0  0  0  0
   -5.0228   -3.8489    0.6960 O   0  0  0  0  0  0  0  0  0  0  0  0
   -5.9168   -3.9849    1.7750 C   0  0  0  0  0  0  0  0  0  0  0  0
   -4.4084   -1.6201    1.3886 C   0  0  0  0  0  0  0  0  0  0  0  0
   -3.8287   -0.3237    1.2253 C   0  0  0  0  0  0  0  0  0  0  0  0
   -2.3987    2.1002   -1.1859 C   0  0  0  0  0  0  0  0  0  0  0  0
   -1.5399    0.9444   -1.7087 C   0  0  0  0  0  0  0  0  0  0  0  0
   -0.1991    0.9003   -1.0967 C   0  0  0  0  0  0  0  0  0  0  0  0
    0.5961   -0.1452   -1.1210 N   0  0  0  0  0  0  0  0  0  0  0  0
    1.9340   -0.0794   -0.5815 C   0  0  0  0  0  0  0  0  0  0  0  0
    3.0002   -0.0870   -1.6927 C   0  0  0  0  0  0  0  0  0  0  0  0
    4.3668    0.0984   -1.0944 C   0  0  0  0  0  0  0  0  0  0  0  0
    4.9949    1.3323   -1.1255 C   0  0  0  0  0  0  0  0  0  0  0  0
    6.2495    1.5046   -0.5613 C   0  0  0  0  0  0  0  0  0  0  0  0
    6.8978    0.4450    0.0569 C   0  0  0  0  0  0  0  0  0  0  0  0
    8.1126    0.4958    0.6318 O   0  0  0  0  0  0  0  0  0  0  0  0
    8.8427    1.7006    0.5917 C   0  0  0  0  0  0  0  0  0  0  0  0
    6.2549   -0.8241    0.1051 C   0  0  0  0  0  0  0  0  0  0  0  0
    6.9507   -1.7948    0.7283 O   0  0  0  0  0  0  0  0  0  0  0  0
    6.4055   -3.0899    0.8131 C   0  0  0  0  0  0  0  0  0  0  0  0
    5.0039   -0.9733   -0.4719 C   0  0  0  0  0  0  0  0  0  0  0  0
    0.2228   -1.3727   -1.7796 C   0  0  0  0  0  0  0  0  0  0  0  0
   -4.1262    2.9367    0.4700 C   0  0  0  0  0  0  0  0  0  0  0  0
   -4.8032    2.7441    1.8249 C   0  0  0  0  0  0  0  0  0  0  0  0
   -3.5299    4.3410    0.4025 C   0  0  0  0  0  0  0  0  0  0  0  0
   -4.3414    0.5226   -1.9806 H   0  0  0  0  0  0  0  0  0  0  0  0
   -6.3960   -0.5045    0.0262 H   0  0  0  0  0  0  0  0  0  0  0  0
   -3.6295   -3.6994   -1.2019 H   0  0  0  0  0  0  0  0  0  0  0  0
   -6.5555   -0.4065   -1.7947 H   0  0  0  0  0  0  0  0  0  0  0  0
   -6.6614   -3.1836    1.7818 H   0  0  0  0  0  0  0  0  0  0  0  0
   -6.4127   -4.9422    1.6257 H   0  0  0  0  0  0  0  0  0  0  0  0
   -5.3876   -4.0007    2.7331 H   0  0  0  0  0  0  0  0  0  0  0  0
   -4.8322   -1.7993    2.3698 H   0  0  0  0  0  0  0  0  0  0  0  0
   -3.3611    0.0616    2.1265 H   0  0  0  0  0  0  0  0  0  0  0  0
   -3.1699    2.3382   -1.9177 H   0  0  0  0  0  0  0  0  0  0  0  0
   -1.7770    2.9884   -1.0689 H   0  0  0  0  0  0  0  0  0  0  0  0
   -2.0594   -0.0056   -1.5589 H   0  0  0  0  0  0  0  0  0  0  0  0
   -1.4173    1.0588   -2.7937 H   0  0  0  0  0  0  0  0  0  0  0  0
   -1.3654    0.7959    1.0328 H   0  0  0  0  0  0  0  0  0  0  0  0
    0.1904    1.7968   -0.6351 H   0  0  0  0  0  0  0  0  0  0  0  0
    2.0931   -0.9361    0.0798 H   0  0  0  0  0  0  0  0  0  0  0  0
    2.0435    0.8332    0.0080 H   0  0  0  0  0  0  0  0  0  0  0  0
    2.7895    0.7242   -2.3912 H   0  0  0  0  0  0  0  0  0  0  0  0
    2.9581   -1.0315   -2.2368 H   0  0  0  0  0  0  0  0  0  0  0  0
    4.5145    2.1715   -1.6048 H   0  0  0  0  0  0  0  0  0  0  0  0
    6.7174    2.4739   -0.6114 H   0  0  0  0  0  0  0  0  0  0  0  0
    8.3251    2.5009    1.1292 H   0  0  0  0  0  0  0  0  0  0  0  0
    9.0359    2.0166   -0.4378 H   0  0  0  0  0  0  0  0  0  0  0  0
    9.7875    1.4859    1.0870 H   0  0  0  0  0  0  0  0  0  0  0  0
    7.1486   -3.6857    1.3394 H   0  0  0  0  0  0  0  0  0  0  0  0
    5.4702   -3.0947    1.3820 H   0  0  0  0  0  0  0  0  0  0  0  0
    6.2343   -3.5195   -0.1787 H   0  0  0  0  0  0  0  0  0  0  0  0
    4.5159   -1.9352   -0.4554 H   0  0  0  0  0  0  0  0  0  0  0  0
    0.2648   -1.2566   -2.8645 H   0  0  0  0  0  0  0  0  0  0  0  0
   -0.7949   -1.6634   -1.5120 H   0  0  0  0  0  0  0  0  0  0  0  0
    0.9034   -2.1663   -1.4829 H   0  0  0  0  0  0  0  0  0  0  0  0
   -4.8960    2.8497   -0.3073 H   0  0  0  0  0  0  0  0  0  0  0  0
   -4.0725    2.8288    2.6239 H   0  0  0  0  0  0  0  0  0  0  0  0
   -5.2949    1.7770    1.8888 H   0  0  0  0  0  0  0  0  0  0  0  0
   -5.5561    3.5147    1.9668 H   0  0  0  0  0  0  0  0  0  0  0  0
   -2.6905    4.4237    1.0857 H   0  0  0  0  0  0  0  0  0  0  0  0
   -3.2095    4.6023   -0.6021 H   0  0  0  0  0  0  0  0  0  0  0  0
   -4.2865    5.0613    0.7028 H   0  0  0  0  0  0  0  0  0  0  0  0
   -0.9511    2.4113    2.6701 H   0  0  0  0  0  0  0  0  0  0  0  0
  1  2  2  0  0  0  0
  2  3  1  0  0  0  0
  3  4  1  0  0  0  0
  4  5  1  0  0  0  0
  6  7  2  0  0  0  0
  5  8  2  0  0  0  0
  6  9  1  0  0  0  0
  9 10  1  0  0  0  0
 10 11  1  0  0  0  0
  9 12  4  0  0  0  0
  4 13  2  0  0  0  0
 12 13  1  0  0  0  0
  3 14  1  0  0  0  0
 14 15  1  0  0  0  0
 15 16  1  0  0  0  0
 16 17  4  0  0  0  0
 17 18  1  0  0  0  0
 18 19  1  0  0  0  0
 19 20  1  0  0  0  0
 20 21  4  0  0  0  0
 21 22  4  0  0  0  0
 22 23  4  0  0  0  0
 23 24  1  0  0  0  0
 24 25  1  0  0  0  0
 23 26  4  0  0  0  0
 26 27  1  0  0  0  0
 27 28  1  0  0  0  0
 20 29  4  0  0  0  0
 26 29  4  0  0  0  0
 17 30  1  0  0  0  0
  3 31  1  0  0  0  0
 31 32  1  0  0  0  0
 31 33  1  0  0  0  0
  5 34  1  0  0  0  0
  8 35  1  0  0  0  0
  6 36  1  0  0  0  0
  8 37  1  0  0  0  0
 11 38  1  0  0  0  0
 11 39  1  0  0  0  0
 11 40  1  0  0  0  0
 12 41  1  0  0  0  0
 13 42  1  0  0  0  0
 14 43  1  0  0  0  0
 14 44  1  0  0  0  0
 15 45  1  0  0  0  0
 15 46  1  0  0  0  0
  2 47  1  0  0  0  0
 16 48  1  0  0  0  0
 18 49  1  0  0  0  0
 18 50  1  0  0  0  0
 19 51  1  0  0  0  0
 19 52  1  0  0  0  0
 21 53  1  0  0  0  0
 22 54  1  0  0  0  0
 25 55  1  0  0  0  0
 25 56  1  0  0  0  0
 25 57  1  0  0  0  0
 28 58  1  0  0  0  0
 28 59  1  0  0  0  0
 28 60  1  0  0  0  0
 29 61  1  0  0  0  0
 30 62  1  0  0  0  0
 30 63  1  0  0  0  0
 30 64  1  0  0  0  0
 31 65  1  0  0  0  0
 32 66  1  0  0  0  0
 32 67  1  0  0  0  0
 32 68  1  0  0  0  0
 33 69  1  0  0  0  0
 33 70  1  0  0  0  0
 33 71  1  0  0  0  0
  1 72  1  0  0  0  0
M  CHG  1   1   1
M  END
