 xtb: 6.6.1 (8d0f1dd)
          06052420003D

 25 26  0     0  0            999 V2000
    3.4853    0.9457    0.5763 C   0  0  0  0  0  0  0  0  0  0  0  0
    2.2338    0.3485    0.1630 N   0  0  0  0  0  0  0  0  0  0  0  0
    2.1761   -0.5289   -0.8266 C   0  0  0  0  0  0  0  0  0  0  0  0
    1.1501   -1.3496   -1.1363 N   0  0  0  0  0  0  0  0  0  0  0  0
    0.1137   -1.9269   -0.4837 C   0  0  0  0  0  0  0  0  0  0  0  0
    1.1175    0.7432    0.8897 C   0  0  0  0  0  0  0  0  0  0  0  0
   -0.0494    1.1319    0.2619 C   0  0  0  0  0  0  0  0  0  0  0  0
    0.6331    2.2059    0.5167 O   0  0  0  0  0  0  0  0  0  0  0  0
   -1.2531    0.8696   -0.1595 N   0  0  0  0  0  0  0  0  0  0  0  0
   -2.1551    1.9568   -0.5402 C   0  0  0  0  0  0  0  0  0  0  0  0
   -1.8317   -0.4075    0.0019 C   0  0  0  0  0  0  0  0  0  0  0  0
   -3.0249   -0.5317    0.0173 O   0  0  0  0  0  0  0  0  0  0  0  0
   -0.9762   -1.5325    0.1329 N   0  0  0  0  0  0  0  0  0  0  0  0
   -1.6803   -2.6426    0.7995 C   0  0  0  0  0  0  0  0  0  0  0  0
    3.7312    0.6086    1.5840 H   0  0  0  0  0  0  0  0  0  0  0  0
    4.2846    0.6701   -0.1060 H   0  0  0  0  0  0  0  0  0  0  0  0
    3.3738    2.0298    0.5972 H   0  0  0  0  0  0  0  0  0  0  0  0
    3.1003   -0.7135   -1.3585 H   0  0  0  0  0  0  0  0  0  0  0  0
   -1.6381    2.9044   -0.4100 H   0  0  0  0  0  0  0  0  0  0  0  0
   -2.4504    1.8247   -1.5810 H   0  0  0  0  0  0  0  0  0  0  0  0
   -3.0464    1.9239    0.0844 H   0  0  0  0  0  0  0  0  0  0  0  0
   -1.8701   -2.3673    1.8359 H   0  0  0  0  0  0  0  0  0  0  0  0
   -1.0545   -3.5289    0.7572 H   0  0  0  0  0  0  0  0  0  0  0  0
   -2.6326   -2.8342    0.3075 H   0  0  0  0  0  0  0  0  0  0  0  0
    1.4238   -1.9813   -1.8924 H   0  0  0  0  0  0  0  0  0  0  0  0
  1  2  1  0  0  0  0
  2  3  4  0  0  0  0
  3  4  4  0  0  0  0
  4  5  4  0  0  0  0
  2  6  1  0  0  0  0
  6  7  1  0  0  0  0
  6  8  1  0  0  0  0
  7  8  4  0  0  0  0
  7  9  4  0  0  0  0
  9 10  1  0  0  0  0
  9 11  1  0  0  0  0
 11 12  2  0  0  0  0
  5 13  4  0  0  0  0
 11 13  1  0  0  0  0
 13 14  1  0  0  0  0
  1 15  1  0  0  0  0
  1 16  1  0  0  0  0
  1 17  1  0  0  0  0
  3 18  1  0  0  0  0
 10 19  1  0  0  0  0
 10 20  1  0  0  0  0
 10 21  1  0  0  0  0
 14 22  1  0  0  0  0
 14 23  1  0  0  0  0
 14 24  1  0  0  0  0
  4 25  1  0  0  0  0
M  CHG  1   1   1
M  END
