 xtb: 6.6.1 (8d0f1dd)
          06052420003D

 25 25  0     0  0            999 V2000
    3.1529    1.1935    0.0264 C   0  0  0  0  0  0  0  0  0  0  0  0
    2.2094    0.1107    0.0028 N   0  0  0  0  0  0  0  0  0  0  0  0
    2.5133   -1.1905   -0.0121 C   0  0  0  0  0  0  0  0  0  0  0  0
    1.3510   -1.8833   -0.0113 N   0  0  0  0  0  0  0  0  0  0  0  0
    0.2985   -1.0155    0.0033 C   0  0  0  0  0  0  0  0  0  0  0  0
    0.8412    0.2641    0.0133 C   0  0  0  0  0  0  0  0  0  0  0  0
    0.0084    1.4442    0.0081 C   0  0  0  0  0  0  0  0  0  0  0  0
    0.3903    2.5910    0.0024 O   0  0  0  0  0  0  0  0  0  0  0  0
   -1.3478    1.1070    0.0032 N   0  0  0  0  0  0  0  0  0  0  0  0
   -2.3082    2.1999   -0.0053 C   0  0  0  0  0  0  0  0  0  0  0  0
   -1.9078   -0.1589    0.0081 C   0  0  0  0  0  0  0  0  0  0  0  0
   -3.0965   -0.3293    0.0121 O   0  0  0  0  0  0  0  0  0  0  0  0
   -1.0248   -1.2546    0.0057 N   0  0  0  0  0  0  0  0  0  0  0  0
   -1.5687   -2.5959    0.0051 C   0  0  0  0  0  0  0  0  0  0  0  0
    3.6266    1.2585    1.0080 H   0  0  0  0  0  0  0  0  0  0  0  0
    3.9290    1.0258   -0.7197 H   0  0  0  0  0  0  0  0  0  0  0  0
    2.6330    2.1290   -0.1771 H   0  0  0  0  0  0  0  0  0  0  0  0
    4.9604   -2.8069   -0.1130 H   0  0  0  0  0  0  0  0  0  0  0  0
   -1.7576    3.1382    0.0026 H   0  0  0  0  0  0  0  0  0  0  0  0
   -2.9353    2.1361   -0.8956 H   0  0  0  0  0  0  0  0  0  0  0  0
   -2.9553    2.1316    0.8700 H   0  0  0  0  0  0  0  0  0  0  0  0
   -1.2410   -3.1388    0.8927 H   0  0  0  0  0  0  0  0  0  0  0  0
   -1.2582   -3.1322   -0.8926 H   0  0  0  0  0  0  0  0  0  0  0  0
   -2.6549   -2.5140    0.0154 H   0  0  0  0  0  0  0  0  0  0  0  0
    1.3026   -2.8913   -0.0214 H   0  0  0  0  0  0  0  0  0  0  0  0
  1  2  1  0  0  0  0
  2  3  4  0  0  0  0
  3  4  4  0  0  0  0
  4  5  1  0  0  0  0
  2  6  1  0  0  0  0
  5  6  4  0  0  0  0
  6  7  1  0  0  0  0
  7  8  2  0  0  0  0
  7  9  1  0  0  0  0
  9 10  1  0  0  0  0
  9 11  1  0  0  0  0
 11 12  2  0  0  0  0
  5 13  4  0  0  0  0
 11 13  1  0  0  0  0
 13 14  1  0  0  0  0
  1 15  1  0  0  0  0
  1 16  1  0  0  0  0
  1 17  1  0  0  0  0
 10 19  1  0  0  0  0
 10 20  1  0  0  0  0
 10 21  1  0  0  0  0
 14 22  1  0  0  0  0
 14 23  1  0  0  0  0
 14 24  1  0  0  0  0
  4 25  1  0  0  0  0
M  CHG  1   1   1
M  END
