 xtb: 6.6.1 (8d0f1dd)
          06052419573D

 25 25  0     0  0            999 V2000
    3.1576    1.2524    0.0152 C   0  0  0  0  0  0  0  0  0  0  0  0
    2.2196    0.1644   -0.0067 N   0  0  0  0  0  0  0  0  0  0  0  0
    2.5287   -1.1349   -0.0220 C   0  0  0  0  0  0  0  0  0  0  0  0
    1.3718   -1.8362   -0.0182 N   0  0  0  0  0  0  0  0  0  0  0  0
    0.3148   -0.9758   -0.0013 C   0  0  0  0  0  0  0  0  0  0  0  0
    0.8523    0.3056    0.0078 C   0  0  0  0  0  0  0  0  0  0  0  0
    0.0080    1.4789    0.0035 C   0  0  0  0  0  0  0  0  0  0  0  0
    0.3841    2.6275   -0.0072 O   0  0  0  0  0  0  0  0  0  0  0  0
   -1.3454    1.1330    0.0069 N   0  0  0  0  0  0  0  0  0  0  0  0
   -2.3141    2.2176    0.0044 C   0  0  0  0  0  0  0  0  0  0  0  0
   -1.8973   -0.1372    0.0079 C   0  0  0  0  0  0  0  0  0  0  0  0
   -3.0848   -0.3163    0.0107 O   0  0  0  0  0  0  0  0  0  0  0  0
   -1.0057   -1.2256    0.0032 N   0  0  0  0  0  0  0  0  0  0  0  0
   -1.5377   -2.5714    0.0001 C   0  0  0  0  0  0  0  0  0  0  0  0
    3.6001    1.3472    1.0090 H   0  0  0  0  0  0  0  0  0  0  0  0
    3.9575    1.0640   -0.6994 H   0  0  0  0  0  0  0  0  0  0  0  0
    2.6419    2.1797   -0.2308 H   0  0  0  0  0  0  0  0  0  0  0  0
    4.7068   -3.6473   -0.0317 H   0  0  0  0  0  0  0  0  0  0  0  0
   -1.7721    3.1609    0.0117 H   0  0  0  0  0  0  0  0  0  0  0  0
   -2.9448    2.1500   -0.8831 H   0  0  0  0  0  0  0  0  0  0  0  0
   -2.9573    2.1420    0.8821 H   0  0  0  0  0  0  0  0  0  0  0  0
   -1.2112   -3.1111    0.8901 H   0  0  0  0  0  0  0  0  0  0  0  0
   -1.2170   -3.1057   -0.8953 H   0  0  0  0  0  0  0  0  0  0  0  0
   -2.6247   -2.4994    0.0038 H   0  0  0  0  0  0  0  0  0  0  0  0
    1.3292   -2.8442   -0.0295 H   0  0  0  0  0  0  0  0  0  0  0  0
  1  2  1  0  0  0  0
  2  3  4  0  0  0  0
  3  4  4  0  0  0  0
  4  5  1  0  0  0  0
  2  6  1  0  0  0  0
  5  6  4  0  0  0  0
  6  7  1  0  0  0  0
  7  8  2  0  0  0  0
  7  9  1  0  0  0  0
  9 10  1  0  0  0  0
  9 11  1  0  0  0  0
 11 12  2  0  0  0  0
  5 13  4  0  0  0  0
 11 13  1  0  0  0  0
 13 14  1  0  0  0  0
  1 15  1  0  0  0  0
  1 16  1  0  0  0  0
  1 17  1  0  0  0  0
 10 19  1  0  0  0  0
 10 20  1  0  0  0  0
 10 21  1  0  0  0  0
 14 22  1  0  0  0  0
 14 23  1  0  0  0  0
 14 24  1  0  0  0  0
  4 25  1  0  0  0  0
M  CHG  1   1   1
M  END
