          63
 
N             -2.13222130        2.58193037        2.09953471
C             -1.87471285        2.71985799        0.76671158
C             -2.30732976        1.90986758       -0.22615217
C             -3.11179244        0.71318867        0.02613766
C             -4.18138678        0.37212430       -0.81263860
C             -4.95226295       -0.75111506       -0.57958182
O             -6.01127175       -1.14064114       -1.32146394
C             -6.40916229       -0.35665534       -2.42045709
C             -4.64727411       -1.59767851        0.52034287
O             -5.45185404       -2.67057024        0.66366335
C             -5.23845924       -3.55035582        1.74260277
C             -3.57453859       -1.27189407        1.33542193
C             -2.81910635       -0.13483664        1.09350063
C             -1.94928429        2.23195869       -1.65058713
C             -1.09233320        1.11465039       -2.29885845
C              0.24537149        1.05131152       -1.68208664
N              0.73079485        0.04498313       -0.97095748
C              2.09719072        0.08502675       -0.50731015
C              3.05393912       -0.61045619       -1.49662184
C              4.47927206       -0.42823326       -1.05677890
C              5.15316321        0.74883788       -1.33884595
C              6.45957308        0.93840133       -0.91611529
C              7.11966339       -0.04933838       -0.20010303
O              8.38473745        0.02495305        0.25810131
C              9.13847359        1.18715896        0.00188700
C              6.43783318       -1.26167368        0.09167161
O              7.15649769       -2.17143174        0.78205384
C              6.58194658       -3.42161019        1.07722702
C              5.12957066       -1.42599789       -0.33533210
C              0.01052585       -1.19439487       -0.80504452
H             -4.43075708        1.02252247       -1.63465930
H             -6.69607135        0.65440776       -2.11215295
H             -7.27599591       -0.86256473       -2.84138660
H             -5.62222145       -0.29831326       -3.17994122
H             -5.35948090       -3.04342905        2.70445438
H             -5.99956101       -4.32248293        1.64454208
H             -4.24669380       -4.01141145        1.69491832
H             -3.31559708       -1.90229853        2.17046465
H             -1.97425206        0.07542982        1.73090311
H             -2.85094970        2.34879757       -2.25323671
H             -1.40101132        3.17329520       -1.69082565
H             -1.62472488        0.16832176       -2.22838342
H             -0.97425941        1.36875810       -3.35710064
H             -1.24972162        3.56777939        0.51799814
H              0.86955620        1.92743390       -1.76400030
H              2.16010274       -0.40254627        0.46816066
H              2.40634961        1.12527946       -0.38868138
H              2.91183721       -0.16546623       -2.48372155
H              2.81035502       -1.67159490       -1.55833448
H              4.66589045        1.52782615       -1.90558379
H              6.95943627        1.86222020       -1.15676591
H              8.67701100        2.07159670        0.45204573
H              9.27093345        1.35021661       -1.07196138
H             10.10902137        1.01317783        0.46252616
H              7.35403006       -3.98079466        1.60201774
H              5.70649653       -3.31874070        1.72658968
H              6.30157425       -3.95977545        0.16640217
H              4.60489086       -2.34386011       -0.12124659
H             -0.10228105       -1.71772951       -1.75763417
H             -0.98098188       -1.00606971       -0.38794523
H              0.55673445       -1.83762105       -0.12000508
H             -2.91427490        1.99379687        2.35456319
H             -2.00555834        3.39824241        2.67353996
