          24
 
C              3.21764698        1.15848794        0.02088707
N              2.27771469        0.06964963       -0.00050916
C              2.56271301       -1.22755843       -0.00405047
N              1.42416728       -1.95177547       -0.01199934
C              0.36745001       -1.07456489       -0.00976633
C              0.91025150        0.20496319       -0.00310250
C              0.08774094        1.39481035       -0.02405780
O              0.48989267        2.53542461       -0.05670353
N             -1.27301319        1.06664980       -0.00734516
C             -2.22337882        2.17554695       -0.00270205
C             -1.85313064       -0.17146032        0.00700378
O             -3.03490464       -0.35637304        0.03240664
N             -0.96261434       -1.32916363       -0.01597312
C             -1.52688226       -2.54568343       -0.04573829
H              3.70675100        1.21535203        0.99483215
H              3.97811156        1.01786930       -0.74616741
H              2.68036063        2.08978903       -0.15698808
H              3.55013678       -1.64734296       -0.00263622
H             -1.65794290        3.10347484       -0.03328966
H             -2.87927250        2.10344582       -0.86909722
H             -2.83341537        2.13426563        0.89875097
H             -0.92727468       -3.43126851       -0.06002202
H             -2.59790759       -2.59088665       -0.05598309
H              1.37843444       -2.96041691       -0.00787995
