 xtb: 6.6.1 (8d0f1dd)
          06052419583D

 25 25  0     0  0            999 V2000
    3.1582    1.2034    0.0166 C   0  0  0  0  0  0  0  0  0  0  0  0
    2.2114    0.1238   -0.0011 N   0  0  0  0  0  0  0  0  0  0  0  0
    2.5192   -1.1787   -0.0079 C   0  0  0  0  0  0  0  0  0  0  0  0
    1.3573   -1.8735   -0.0072 N   0  0  0  0  0  0  0  0  0  0  0  0
    0.3025   -1.0095   -0.0003 C   0  0  0  0  0  0  0  0  0  0  0  0
    0.8417    0.2723    0.0049 C   0  0  0  0  0  0  0  0  0  0  0  0
    0.0058    1.4450   -0.0023 C   0  0  0  0  0  0  0  0  0  0  0  0
    0.3832    2.5969   -0.0135 O   0  0  0  0  0  0  0  0  0  0  0  0
   -1.3530    1.1057    0.0017 N   0  0  0  0  0  0  0  0  0  0  0  0
   -2.3169    2.1923    0.0001 C   0  0  0  0  0  0  0  0  0  0  0  0
   -1.9067   -0.1643    0.0032 C   0  0  0  0  0  0  0  0  0  0  0  0
   -3.0984   -0.3366    0.0058 O   0  0  0  0  0  0  0  0  0  0  0  0
   -1.0231   -1.2539    0.0002 N   0  0  0  0  0  0  0  0  0  0  0  0
   -1.5600   -2.5980   -0.0036 C   0  0  0  0  0  0  0  0  0  0  0  0
    3.6609    1.2467    0.9853 H   0  0  0  0  0  0  0  0  0  0  0  0
    3.9127    1.0458   -0.7542 H   0  0  0  0  0  0  0  0  0  0  0  0
    2.6376    2.1457   -0.1558 H   0  0  0  0  0  0  0  0  0  0  0  0
    4.9228   -2.8510   -0.0135 H   0  0  0  0  0  0  0  0  0  0  0  0
   -1.7715    3.1347    0.0082 H   0  0  0  0  0  0  0  0  0  0  0  0
   -2.9488    2.1290   -0.8878 H   0  0  0  0  0  0  0  0  0  0  0  0
   -2.9610    2.1195    0.8784 H   0  0  0  0  0  0  0  0  0  0  0  0
   -1.2313   -3.1414    0.8836 H   0  0  0  0  0  0  0  0  0  0  0  0
   -1.2456   -3.1311   -0.9022 H   0  0  0  0  0  0  0  0  0  0  0  0
   -2.6475   -2.5228    0.0053 H   0  0  0  0  0  0  0  0  0  0  0  0
    1.3109   -2.8818   -0.0127 H   0  0  0  0  0  0  0  0  0  0  0  0
  1  2  1  0  0  0  0
  2  3  4  0  0  0  0
  3  4  4  0  0  0  0
  4  5  1  0  0  0  0
  2  6  1  0  0  0  0
  5  6  4  0  0  0  0
  6  7  1  0  0  0  0
  7  8  2  0  0  0  0
  7  9  1  0  0  0  0
  9 10  1  0  0  0  0
  9 11  1  0  0  0  0
 11 12  2  0  0  0  0
  5 13  1  0  0  0  0
 11 13  1  0  0  0  0
 13 14  1  0  0  0  0
  1 15  1  0  0  0  0
  1 16  1  0  0  0  0
  1 17  1  0  0  0  0
 10 19  1  0  0  0  0
 10 20  1  0  0  0  0
 10 21  1  0  0  0  0
 14 22  1  0  0  0  0
 14 23  1  0  0  0  0
 14 24  1  0  0  0  0
  4 25  1  0  0  0  0
M  CHG  1   1   1
M  END
