 xtb: 6.6.1 (8d0f1dd)
          06052419583D

 25 25  0     0  0            999 V2000
    3.2330    1.0743   -0.0350 C   0  0  0  0  0  0  0  0  0  0  0  0
    2.3000   -0.0210   -0.0282 N   0  0  0  0  0  0  0  0  0  0  0  0
    2.5889   -1.3139   -0.0032 C   0  0  0  0  0  0  0  0  0  0  0  0
    1.4518   -2.0394    0.0191 N   0  0  0  0  0  0  0  0  0  0  0  0
    0.3977   -1.1753    0.0088 C   0  0  0  0  0  0  0  0  0  0  0  0
    0.9281    0.1094   -0.0206 C   0  0  0  0  0  0  0  0  0  0  0  0
    0.1058    1.2821   -0.0554 C   0  0  0  0  0  0  0  0  0  0  0  0
    0.4681    2.4365   -0.1142 O   0  0  0  0  0  0  0  0  0  0  0  0
   -1.2869    0.9428   -0.0165 N   0  0  0  0  0  0  0  0  0  0  0  0
   -2.1663    1.9529   -0.0284 C   0  0  0  0  0  0  0  0  0  0  0  0
   -1.8300   -0.3747    0.0271 C   0  0  0  0  0  0  0  0  0  0  0  0
   -3.0150   -0.5573    0.0630 O   0  0  0  0  0  0  0  0  0  0  0  0
   -0.9242   -1.4332    0.0216 N   0  0  0  0  0  0  0  0  0  0  0  0
   -1.4365   -2.7916    0.0384 C   0  0  0  0  0  0  0  0  0  0  0  0
    3.6825    1.1936    0.9521 H   0  0  0  0  0  0  0  0  0  0  0  0
    4.0228    0.8940   -0.7626 H   0  0  0  0  0  0  0  0  0  0  0  0
    2.6974    1.9893   -0.2863 H   0  0  0  0  0  0  0  0  0  0  0  0
    3.5770   -1.7311   -0.0026 H   0  0  0  0  0  0  0  0  0  0  0  0
   -3.3001    5.1255    0.1547 H   0  0  0  0  0  0  0  0  0  0  0  0
   -1.7777    2.9558   -0.0644 H   0  0  0  0  0  0  0  0  0  0  0  0
   -3.2155    1.7259   -0.0001 H   0  0  0  0  0  0  0  0  0  0  0  0
   -1.1271   -3.3058    0.9485 H   0  0  0  0  0  0  0  0  0  0  0  0
   -1.0920   -3.3372   -0.8403 H   0  0  0  0  0  0  0  0  0  0  0  0
   -2.5239   -2.7347    0.0174 H   0  0  0  0  0  0  0  0  0  0  0  0
    1.4026   -3.0485    0.0382 H   0  0  0  0  0  0  0  0  0  0  0  0
  1  2  1  0  0  0  0
  2  3  4  0  0  0  0
  3  4  4  0  0  0  0
  4  5  1  0  0  0  0
  2  6  1  0  0  0  0
  5  6  4  0  0  0  0
  6  7  1  0  0  0  0
  7  8  2  0  0  0  0
  7  9  1  0  0  0  0
  9 10  4  0  0  0  0
  9 11  1  0  0  0  0
 11 12  2  0  0  0  0
  5 13  1  0  0  0  0
 11 13  1  0  0  0  0
 13 14  1  0  0  0  0
  1 15  1  0  0  0  0
  1 16  1  0  0  0  0
  1 17  1  0  0  0  0
  3 18  1  0  0  0  0
 10 20  1  0  0  0  0
 10 21  1  0  0  0  0
 14 22  1  0  0  0  0
 14 23  1  0  0  0  0
 14 24  1  0  0  0  0
  4 25  1  0  0  0  0
M  CHG  1   1   1
M  END
