          50
 
N             -2.20155413        2.92176234        2.71729438
C             -2.04796292        2.19615825        1.71283306
C             -3.05002916        2.06929706        0.59716738
C             -3.54025609        0.63330445        0.50658488
C             -4.37568916        0.25308971       -0.54604860
C             -4.86979018       -1.03648459       -0.65055054
O             -5.70531276       -1.47528276       -1.61388592
C             -6.27436254       -0.54745420       -2.50837259
C             -4.49351469       -2.01097496        0.31417470
O             -4.99943763       -3.24456954        0.11933365
C             -4.72967807       -4.25434014        1.06338649
C             -3.66583963       -1.62736863        1.35739759
C             -3.20589353       -0.31990185        1.45681753
C             -2.29149002        2.45817248       -0.70147825
C             -1.34399829        1.37994816       -1.25972329
C             -0.12597769        1.17840554       -0.43421940
N              0.40002798        0.00779137       -0.09092769
C              1.51426178       -0.10746668        0.61829530
C             -0.27594031       -1.21643217       -0.48635434
C             -4.28894436        2.99514695        0.78273777
C             -5.09122121        2.60751985        2.02274736
C             -3.93485783        4.47828362        0.83890521
H             -4.65416701        0.98211274       -1.28882684
H             -6.79760226        0.25183477       -1.97493739
H             -6.99047646       -1.11440310       -3.10035261
H             -5.52118489       -0.11342810       -3.17406954
H             -5.08633804       -3.97808520        2.05998618
H             -5.27269680       -5.13118364        0.71606005
H             -3.66041211       -4.48529719        1.10876902
H             -3.38285538       -2.33780053        2.11718539
H             -2.59595142       -0.05357815        2.30580564
H             -3.02566398        2.68629354       -1.47397696
H             -1.72031688        3.36748662       -0.51109720
H             -1.89849468        0.45370876       -1.39634314
H             -1.03223215        1.72865933       -2.25287625
H             -1.13329156        1.61341418        1.51547018
H              0.44884633        2.05456108       -0.17503739
H              1.89064310       -1.07437684        0.87945976
H              2.05202078        0.76995249        0.91694616
H             -0.34098310       -1.27421406       -1.57253272
H             -1.28222435       -1.24769852       -0.06459694
H              0.28250575       -2.07569937       -0.12462183
H             -4.92868151        2.83761568       -0.09292160
H             -4.50312110        2.78730271        2.91701238
H             -5.37832295        1.55901324        1.99380959
H             -5.99481719        3.20883865        2.07668278
H             -3.28136762        4.67789237        1.68210344
H             -3.45430633        4.81567192       -0.07535816
H             -4.84571637        5.05660667        0.96959568
H             -1.44717674        2.96499172        3.39506946
