 xtb: 6.6.1 (8d0f1dd)
          06052420003D

 25 25  0     0  0            999 V2000
    5.0558    0.7967   -0.5225 C   0  0  0  0  0  0  0  0  0  0  0  0
    3.7792    0.2371   -0.5246 N   0  0  0  0  0  0  0  0  0  0  0  0
    3.0194   -0.0286    0.4689 C   0  0  0  0  0  0  0  0  0  0  0  0
    1.7860   -0.3996    0.3799 N   0  0  0  0  0  0  0  0  0  0  0  0
   -0.4927   -0.6484    0.1239 C   0  0  0  0  0  0  0  0  0  0  0  0
    0.8044   -1.1777    0.1685 C   0  0  0  0  0  0  0  0  0  0  0  0
   -0.8037    0.7792    0.3189 C   0  0  0  0  0  0  0  0  0  0  0  0
   -0.0575    1.6956    0.5513 O   0  0  0  0  0  0  0  0  0  0  0  0
   -2.1789    0.8514    0.1726 N   0  0  0  0  0  0  0  0  0  0  0  0
   -2.9629    2.0543    0.2865 C   0  0  0  0  0  0  0  0  0  0  0  0
   -2.7272   -0.3844   -0.0941 C   0  0  0  0  0  0  0  0  0  0  0  0
   -3.8731   -0.6663   -0.2804 O   0  0  0  0  0  0  0  0  0  0  0  0
   -1.6493   -1.3000   -0.1145 N   0  0  0  0  0  0  0  0  0  0  0  0
   -1.8465   -2.6938   -0.3825 C   0  0  0  0  0  0  0  0  0  0  0  0
    5.4738    0.9442    0.4821 H   0  0  0  0  0  0  0  0  0  0  0  0
    5.7214    0.1493   -1.1017 H   0  0  0  0  0  0  0  0  0  0  0  0
    5.0156    1.7620   -1.0381 H   0  0  0  0  0  0  0  0  0  0  0  0
    3.3518    0.1687    1.5036 H   0  0  0  0  0  0  0  0  0  0  0  0
   -2.2848    2.9051    0.3097 H   0  0  0  0  0  0  0  0  0  0  0  0
   -3.6411    2.1285   -0.5642 H   0  0  0  0  0  0  0  0  0  0  0  0
   -3.5572    2.0317    1.2023 H   0  0  0  0  0  0  0  0  0  0  0  0
   -1.4939   -3.3022    0.4522 H   0  0  0  0  0  0  0  0  0  0  0  0
   -1.3191   -2.9917   -1.2907 H   0  0  0  0  0  0  0  0  0  0  0  0
   -2.9166   -2.8515   -0.5187 H   0  0  0  0  0  0  0  0  0  0  0  0
    0.9574   -2.2413    0.0428 H   0  0  0  0  0  0  0  0  0  0  0  0
  1  2  1  0  0  0  0
  2  3  2  0  0  0  0
  3  4  4  0  0  0  0
  4  6  2  0  0  0  0
  5  6  4  0  0  0  0
  5  7  1  0  0  0  0
  7  8  2  0  0  0  0
  7  9  1  0  0  0  0
  9 10  1  0  0  0  0
  9 11  1  0  0  0  0
 11 12  2  0  0  0  0
  5 13  4  0  0  0  0
 11 13  1  0  0  0  0
 13 14  1  0  0  0  0
  1 15  1  0  0  0  0
  1 16  1  0  0  0  0
  1 17  1  0  0  0  0
  3 18  1  0  0  0  0
 10 19  1  0  0  0  0
 10 20  1  0  0  0  0
 10 21  1  0  0  0  0
 14 22  1  0  0  0  0
 14 23  1  0  0  0  0
 14 24  1  0  0  0  0
  6 25  1  0  0  0  0
M  CHG  1   1   1
M  END
