 xtb: 6.6.1 (8d0f1dd)
          04062411143D

 72 73  0     0  0            999 V2000
   -1.8252    2.7673    2.2398 N   0  0  0  0  0  0  0  0  0  0  0  0
   -1.7910    2.0877    1.1917 C   0  0  0  0  0  0  0  0  0  0  0  0
   -2.9497    1.9013    0.2520 C   0  0  0  0  0  0  0  0  0  0  0  0
   -3.4325    0.4599    0.3187 C   0  0  0  0  0  0  0  0  0  0  0  0
   -4.3838    0.0071   -0.5979 C   0  0  0  0  0  0  0  0  0  0  0  0
   -4.8692   -1.2887   -0.5577 C   0  0  0  0  0  0  0  0  0  0  0  0
   -5.7976   -1.7993   -1.3949 O   0  0  0  0  0  0  0  0  0  0  0  0
   -6.4269   -0.9487   -2.3239 C   0  0  0  0  0  0  0  0  0  0  0  0
   -4.3800   -2.1887    0.4260 C   0  0  0  0  0  0  0  0  0  0  0  0
   -4.8998   -3.4337    0.3841 O   0  0  0  0  0  0  0  0  0  0  0  0
   -4.5271   -4.3630    1.3740 C   0  0  0  0  0  0  0  0  0  0  0  0
   -3.4369   -1.7340    1.3326 C   0  0  0  0  0  0  0  0  0  0  0  0
   -2.9728   -0.4247    1.2808 C   0  0  0  0  0  0  0  0  0  0  0  0
   -2.4057    2.2084   -1.1682 C   0  0  0  0  0  0  0  0  0  0  0  0
   -1.4913    1.1161   -1.7549 C   0  0  0  0  0  0  0  0  0  0  0  0
   -0.1562    1.0648   -1.1190 C   0  0  0  0  0  0  0  0  0  0  0  0
    0.4772   -0.0433   -0.7342 N   0  0  0  0  0  0  0  0  0  0  0  0
    1.8408    0.0194   -0.2718 C   0  0  0  0  0  0  0  0  0  0  0  0
    2.8439   -0.4710   -1.3408 C   0  0  0  0  0  0  0  0  0  0  0  0
    4.2531   -0.2341   -0.8892 C   0  0  0  0  0  0  0  0  0  0  0  0
    4.9239    0.8962   -1.2084 C   0  0  0  0  0  0  0  0  0  0  0  0
    6.2430    1.1602   -0.7730 C   0  0  0  0  0  0  0  0  0  0  0  0
    6.9313    0.2298   -0.0191 C   0  0  0  0  0  0  0  0  0  0  0  0
    8.1977    0.3600    0.4279 O   0  0  0  0  0  0  0  0  0  0  0  0
    8.9003    1.5527    0.1534 C   0  0  0  0  0  0  0  0  0  0  0  0
    6.3027   -0.9931    0.3304 C   0  0  0  0  0  0  0  0  0  0  0  0
    7.0278   -1.8655    0.9973 O   0  0  0  0  0  0  0  0  0  0  0  0
    6.6468   -3.0268    1.4323 C   0  0  0  0  0  0  0  0  0  0  0  0
    4.8756   -1.2887   -0.0231 C   0  0  0  0  0  0  0  0  0  0  0  0
   -0.1450   -1.3436   -0.8022 C   0  0  0  0  0  0  0  0  0  0  0  0
   -4.1539    2.8360    0.5718 C   0  0  0  0  0  0  0  0  0  0  0  0
   -4.7857    2.4918    1.9188 C   0  0  0  0  0  0  0  0  0  0  0  0
   -3.7893    4.3177    0.5373 C   0  0  0  0  0  0  0  0  0  0  0  0
   -4.7615    0.6852   -1.3449 H   0  0  0  0  0  0  0  0  0  0  0  0
   -6.9223   -0.1090   -1.8271 H   0  0  0  0  0  0  0  0  0  0  0  0
   -7.1739   -1.5632   -2.8224 H   0  0  0  0  0  0  0  0  0  0  0  0
   -5.7187   -0.5691   -3.0678 H   0  0  0  0  0  0  0  0  0  0  0  0
   -4.7785   -4.0041    2.3765 H   0  0  0  0  0  0  0  0  0  0  0  0
   -5.0992   -5.2634    1.1593 H   0  0  0  0  0  0  0  0  0  0  0  0
   -3.4578   -4.5941    1.3261 H   0  0  0  0  0  0  0  0  0  0  0  0
   -3.0620   -2.3887    2.1026 H   0  0  0  0  0  0  0  0  0  0  0  0
   -2.2631   -0.0986    2.0254 H   0  0  0  0  0  0  0  0  0  0  0  0
   -3.2496    2.3394   -1.8445 H   0  0  0  0  0  0  0  0  0  0  0  0
   -1.8579    3.1511   -1.1389 H   0  0  0  0  0  0  0  0  0  0  0  0
   -1.9965    0.1530   -1.7091 H   0  0  0  0  0  0  0  0  0  0  0  0
   -1.3452    1.3664   -2.8139 H   0  0  0  0  0  0  0  0  0  0  0  0
   -0.8810    1.5795    0.8182 H   0  0  0  0  0  0  0  0  0  0  0  0
    0.4152    1.9803   -1.0855 H   0  0  0  0  0  0  0  0  0  0  0  0
    1.9379   -0.5915    0.6302 H   0  0  0  0  0  0  0  0  0  0  0  0
    2.0864    1.0518   -0.0151 H   0  0  0  0  0  0  0  0  0  0  0  0
    2.6539    0.0793   -2.2638 H   0  0  0  0  0  0  0  0  0  0  0  0
    2.6797   -1.5327   -1.5324 H   0  0  0  0  0  0  0  0  0  0  0  0
    4.4519    1.6381   -1.8363 H   0  0  0  0  0  0  0  0  0  0  0  0
    6.7033    2.0893   -1.0596 H   0  0  0  0  0  0  0  0  0  0  0  0
    8.3871    2.4228    0.5730 H   0  0  0  0  0  0  0  0  0  0  0  0
    9.0445    1.6939   -0.9214 H   0  0  0  0  0  0  0  0  0  0  0  0
    9.8688    1.4368    0.6358 H   0  0  0  0  0  0  0  0  0  0  0  0
    7.4045   -3.5983    1.9320 H   0  0  0  0  0  0  0  0  0  0  0  0
    5.6553   -3.4194    1.2916 H   0  0  0  0  0  0  0  0  0  0  0  0
    4.8020   -2.2635   -0.5173 H   0  0  0  0  0  0  0  0  0  0  0  0
    4.2952   -1.3837    0.9152 H   0  0  0  0  0  0  0  0  0  0  0  0
   -0.2944   -1.6566   -1.8379 H   0  0  0  0  0  0  0  0  0  0  0  0
   -1.1134   -1.3312   -0.2956 H   0  0  0  0  0  0  0  0  0  0  0  0
    0.4928   -2.0724   -0.3087 H   0  0  0  0  0  0  0  0  0  0  0  0
   -4.9035    2.6550   -0.2069 H   0  0  0  0  0  0  0  0  0  0  0  0
   -4.0770    2.6759    2.7195 H   0  0  0  0  0  0  0  0  0  0  0  0
   -5.0950    1.4501    1.9531 H   0  0  0  0  0  0  0  0  0  0  0  0
   -5.6616    3.1147    2.0800 H   0  0  0  0  0  0  0  0  0  0  0  0
   -3.0298    4.5368    1.2813 H   0  0  0  0  0  0  0  0  0  0  0  0
   -3.4323    4.6255   -0.4420 H   0  0  0  0  0  0  0  0  0  0  0  0
   -4.6722    4.9072    0.7699 H   0  0  0  0  0  0  0  0  0  0  0  0
   -0.9698    2.8419    2.7818 H   0  0  0  0  0  0  0  0  0  0  0  0
  1  2  2  0  0  0  0
  2  3  1  0  0  0  0
  3  4  1  0  0  0  0
  4  5  4  0  0  0  0
  5  6  4  0  0  0  0
  6  7  1  0  0  0  0
  7  8  1  0  0  0  0
  6  9  4  0  0  0  0
  9 10  1  0  0  0  0
 10 11  1  0  0  0  0
  9 12  4  0  0  0  0
  4 13  4  0  0  0  0
 12 13  4  0  0  0  0
  3 14  1  0  0  0  0
 14 15  1  0  0  0  0
 15 16  1  0  0  0  0
 16 17  4  0  0  0  0
 17 18  1  0  0  0  0
 18 19  1  0  0  0  0
 19 20  1  0  0  0  0
 20 21  2  0  0  0  0
 21 22  4  0  0  0  0
 22 23  4  0  0  0  0
 23 24  1  0  0  0  0
 24 25  1  0  0  0  0
 23 26  4  0  0  0  0
 26 27  1  0  0  0  0
 27 28  4  0  0  0  0
 20 29  1  0  0  0  0
 26 29  1  0  0  0  0
 17 30  1  0  0  0  0
  3 31  1  0  0  0  0
 31 32  1  0  0  0  0
 31 33  1  0  0  0  0
  5 34  1  0  0  0  0
  8 35  1  0  0  0  0
  8 36  1  0  0  0  0
  8 37  1  0  0  0  0
 11 38  1  0  0  0  0
 11 39  1  0  0  0  0
 11 40  1  0  0  0  0
 12 41  1  0  0  0  0
 13 42  1  0  0  0  0
 14 43  1  0  0  0  0
 14 44  1  0  0  0  0
 15 45  1  0  0  0  0
 15 46  1  0  0  0  0
  2 47  1  0  0  0  0
 16 48  1  0  0  0  0
 18 49  1  0  0  0  0
 18 50  1  0  0  0  0
 19 51  1  0  0  0  0
 19 52  1  0  0  0  0
 21 53  1  0  0  0  0
 22 54  1  0  0  0  0
 25 55  1  0  0  0  0
 25 56  1  0  0  0  0
 25 57  1  0  0  0  0
 28 58  1  0  0  0  0
 28 59  1  0  0  0  0
 29 60  1  0  0  0  0
 29 61  1  0  0  0  0
 30 62  1  0  0  0  0
 30 63  1  0  0  0  0
 30 64  1  0  0  0  0
 31 65  1  0  0  0  0
 32 66  1  0  0  0  0
 32 67  1  0  0  0  0
 32 68  1  0  0  0  0
 33 69  1  0  0  0  0
 33 70  1  0  0  0  0
 33 71  1  0  0  0  0
  1 72  1  0  0  0  0
M  CHG  1   1   1
M  END
