 xtb: 6.6.1 (8d0f1dd)
          04062411123D

 72 73  0     0  0            999 V2000
   -1.8499    2.6386    2.2519 N   0  0  0  0  0  0  0  0  0  0  0  0
   -1.7487    2.0586    1.1473 C   0  0  0  0  0  0  0  0  0  0  0  0
   -2.8933    1.8572    0.1889 C   0  0  0  0  0  0  0  0  0  0  0  0
   -3.3926    0.4306    0.2694 C   0  0  0  0  0  0  0  0  0  0  0  0
   -4.3355   -0.0293   -0.6069 C   0  0  0  0  0  0  0  0  0  0  0  0
   -4.8680   -1.3247   -0.5396 C   0  0  0  0  0  0  0  0  0  0  0  0
   -5.8115   -1.8135   -1.3473 O   0  0  0  0  0  0  0  0  0  0  0  0
   -6.4193   -0.9836   -2.3122 C   0  0  0  0  0  0  0  0  0  0  0  0
   -4.3966   -2.2347    0.4745 C   0  0  0  0  0  0  0  0  0  0  0  0
   -4.9734   -3.4536    0.4298 O   0  0  0  0  0  0  0  0  0  0  0  0
   -4.6285   -4.4024    1.4131 C   0  0  0  0  0  0  0  0  0  0  0  0
   -3.4587   -1.8220    1.3625 C   0  0  0  0  0  0  0  0  0  0  0  0
   -2.8814   -0.4527    1.3514 C   0  0  0  0  0  0  0  0  0  0  0  0
   -2.3453    2.1578   -1.2336 C   0  0  0  0  0  0  0  0  0  0  0  0
   -1.4418    1.0663   -1.8376 C   0  0  0  0  0  0  0  0  0  0  0  0
   -0.0811    1.0140   -1.2389 C   0  0  0  0  0  0  0  0  0  0  0  0
    0.5234   -0.0721   -0.7715 N   0  0  0  0  0  0  0  0  0  0  0  0
    1.9099    0.0903   -0.3399 C   0  0  0  0  0  0  0  0  0  0  0  0
    2.8839   -0.2368   -1.4815 C   0  0  0  0  0  0  0  0  0  0  0  0
    4.2987   -0.0522   -1.0072 C   0  0  0  0  0  0  0  0  0  0  0  0
    4.9572    1.1524   -1.1903 C   0  0  0  0  0  0  0  0  0  0  0  0
    6.2479    1.3343   -0.7180 C   0  0  0  0  0  0  0  0  0  0  0  0
    6.9053    0.3138   -0.0460 C   0  0  0  0  0  0  0  0  0  0  0  0
    8.1529    0.3806    0.4547 O   0  0  0  0  0  0  0  0  0  0  0  0
    8.8989    1.5642    0.2850 C   0  0  0  0  0  0  0  0  0  0  0  0
    6.2365   -0.9267    0.1482 C   0  0  0  0  0  0  0  0  0  0  0  0
    6.9446   -1.8655    0.8073 O   0  0  0  0  0  0  0  0  0  0  0  0
    6.3729   -3.1340    1.0208 C   0  0  0  0  0  0  0  0  0  0  0  0
    4.9465   -1.0844   -0.3332 C   0  0  0  0  0  0  0  0  0  0  0  0
    0.0183   -1.2941   -0.6676 C   0  0  0  0  0  0  0  0  0  0  0  0
   -4.1019    2.8059    0.4874 C   0  0  0  0  0  0  0  0  0  0  0  0
   -4.7859    2.4564    1.8073 C   0  0  0  0  0  0  0  0  0  0  0  0
   -3.7131    4.2812    0.4844 C   0  0  0  0  0  0  0  0  0  0  0  0
   -4.6993    0.6279   -1.3807 H   0  0  0  0  0  0  0  0  0  0  0  0
   -6.8766   -0.1041   -1.8505 H   0  0  0  0  0  0  0  0  0  0  0  0
   -7.1941   -1.5923   -2.7736 H   0  0  0  0  0  0  0  0  0  0  0  0
   -5.7047   -0.6682   -3.0782 H   0  0  0  0  0  0  0  0  0  0  0  0
   -4.8559   -4.0354    2.4181 H   0  0  0  0  0  0  0  0  0  0  0  0
   -5.2385   -5.2778    1.2004 H   0  0  0  0  0  0  0  0  0  0  0  0
   -3.5699   -4.6730    1.3531 H   0  0  0  0  0  0  0  0  0  0  0  0
   -3.0960   -2.4793    2.1352 H   0  0  0  0  0  0  0  0  0  0  0  0
   -3.0638    0.0286    2.3236 H   0  0  0  0  0  0  0  0  0  0  0  0
   -3.1898    2.3040   -1.9066 H   0  0  0  0  0  0  0  0  0  0  0  0
   -1.7873    3.0941   -1.1997 H   0  0  0  0  0  0  0  0  0  0  0  0
   -1.9414    0.1018   -1.7708 H   0  0  0  0  0  0  0  0  0  0  0  0
   -1.3319    1.3086   -2.9018 H   0  0  0  0  0  0  0  0  0  0  0  0
   -0.7994    1.6577    0.7534 H   0  0  0  0  0  0  0  0  0  0  0  0
    0.5101    1.9138   -1.2823 H   0  0  0  0  0  0  0  0  0  0  0  0
    2.1020   -0.5743    0.5045 H   0  0  0  0  0  0  0  0  0  0  0  0
    2.0721    1.1188   -0.0112 H   0  0  0  0  0  0  0  0  0  0  0  0
    2.6829    0.4251   -2.3253 H   0  0  0  0  0  0  0  0  0  0  0  0
    2.7230   -1.2662   -1.8060 H   0  0  0  0  0  0  0  0  0  0  0  0
    4.4705    1.9602   -1.7152 H   0  0  0  0  0  0  0  0  0  0  0  0
    6.7365    2.2806   -0.8819 H   0  0  0  0  0  0  0  0  0  0  0  0
    8.4195    2.4144    0.7798 H   0  0  0  0  0  0  0  0  0  0  0  0
    9.0490    1.7942   -0.7741 H   0  0  0  0  0  0  0  0  0  0  0  0
    9.8625    1.3714    0.7526 H   0  0  0  0  0  0  0  0  0  0  0  0
    7.1273   -3.7091    1.5539 H   0  0  0  0  0  0  0  0  0  0  0  0
    5.4688   -3.0686    1.6346 H   0  0  0  0  0  0  0  0  0  0  0  0
    6.1390   -3.6328    0.0752 H   0  0  0  0  0  0  0  0  0  0  0  0
    4.4327   -2.0235   -0.1995 H   0  0  0  0  0  0  0  0  0  0  0  0
   -0.9646   -1.5248   -1.0222 H   0  0  0  0  0  0  0  0  0  0  0  0
   -1.7855   -0.5291    1.2856 H   0  0  0  0  0  0  0  0  0  0  0  0
    0.6371   -2.0803   -0.2852 H   0  0  0  0  0  0  0  0  0  0  0  0
   -4.8260    2.6462   -0.3192 H   0  0  0  0  0  0  0  0  0  0  0  0
   -4.0916    2.5866    2.6314 H   0  0  0  0  0  0  0  0  0  0  0  0
   -5.1544    1.4330    1.8036 H   0  0  0  0  0  0  0  0  0  0  0  0
   -5.6327    3.1201    1.9626 H   0  0  0  0  0  0  0  0  0  0  0  0
   -2.9893    4.4846    1.2676 H   0  0  0  0  0  0  0  0  0  0  0  0
   -3.3027    4.5905   -0.4729 H   0  0  0  0  0  0  0  0  0  0  0  0
   -4.5980    4.8823    0.6767 H   0  0  0  0  0  0  0  0  0  0  0  0
   -1.0036    2.7387    2.8039 H   0  0  0  0  0  0  0  0  0  0  0  0
  1  2  2  0  0  0  0
  2  3  1  0  0  0  0
  3  4  1  0  0  0  0
  4  5  2  0  0  0  0
  5  6  4  0  0  0  0
  6  7  1  0  0  0  0
  7  8  1  0  0  0  0
  6  9  1  0  0  0  0
  9 10  1  0  0  0  0
 10 11  1  0  0  0  0
  9 12  2  0  0  0  0
  4 13  1  0  0  0  0
 12 13  1  0  0  0  0
  3 14  1  0  0  0  0
 14 15  1  0  0  0  0
 15 16  1  0  0  0  0
 16 17  4  0  0  0  0
 17 18  1  0  0  0  0
 18 19  1  0  0  0  0
 19 20  1  0  0  0  0
 20 21  4  0  0  0  0
 21 22  4  0  0  0  0
 22 23  4  0  0  0  0
 23 24  1  0  0  0  0
 24 25  1  0  0  0  0
 23 26  4  0  0  0  0
 26 27  1  0  0  0  0
 27 28  1  0  0  0  0
 20 29  4  0  0  0  0
 26 29  4  0  0  0  0
 17 30  4  0  0  0  0
  3 31  1  0  0  0  0
 31 32  1  0  0  0  0
 31 33  1  0  0  0  0
  5 34  1  0  0  0  0
  8 35  1  0  0  0  0
  8 36  1  0  0  0  0
  8 37  1  0  0  0  0
 11 38  1  0  0  0  0
 11 39  1  0  0  0  0
 11 40  1  0  0  0  0
 12 41  1  0  0  0  0
 13 42  1  0  0  0  0
 14 43  1  0  0  0  0
 14 44  1  0  0  0  0
 15 45  1  0  0  0  0
 15 46  1  0  0  0  0
  2 47  1  0  0  0  0
 16 48  1  0  0  0  0
 18 49  1  0  0  0  0
 18 50  1  0  0  0  0
 19 51  1  0  0  0  0
 19 52  1  0  0  0  0
 21 53  1  0  0  0  0
 22 54  1  0  0  0  0
 25 55  1  0  0  0  0
 25 56  1  0  0  0  0
 25 57  1  0  0  0  0
 28 58  1  0  0  0  0
 28 59  1  0  0  0  0
 28 60  1  0  0  0  0
 29 61  1  0  0  0  0
 30 62  1  0  0  0  0
 13 63  1  0  0  0  0
 30 64  1  0  0  0  0
 31 65  1  0  0  0  0
 32 66  1  0  0  0  0
 32 67  1  0  0  0  0
 32 68  1  0  0  0  0
 33 69  1  0  0  0  0
 33 70  1  0  0  0  0
 33 71  1  0  0  0  0
  1 72  1  0  0  0  0
M  CHG  1   1   1
M  END
