          68
 
N             -1.85726419        2.70594951        2.62874180
C             -1.83604060        2.11147946        1.53106478
C             -2.99574374        2.03979099        0.57611429
C             -3.47891919        0.60168392        0.47176514
C             -4.39533198        0.24868528       -0.52096029
C             -4.88213662       -1.04321165       -0.63050961
O             -5.76957768       -1.46539862       -1.55417008
C             -6.33730227       -0.53196921       -2.44263128
C             -4.43677306       -2.03870192        0.28150697
O             -4.95805708       -3.26754278        0.09836088
C             -4.61556724       -4.29824909        0.99538138
C             -3.52965304       -1.68042258        1.26615604
C             -3.05941937       -0.37667389        1.35989548
C             -2.44606017        2.52316675       -0.79184593
C             -1.55350017        1.50170153       -1.51823345
C             -0.20854840        1.35026152       -0.92089738
N              0.42077365        0.20098560       -0.72169487
C              1.83203246        0.18955103       -0.41259072
C              2.68471925        0.04409213       -1.68837155
C              4.14496872        0.02526319       -1.33584082
C              4.82514801        1.21047330       -1.08198607
C              6.16293941        1.21388745       -0.73637545
C              6.85959320        0.00618055       -0.63582261
O              8.16172481       -0.11400816       -0.32814014
C              8.91222481        1.03867954       -0.01750764
C              6.17421569       -1.19052949       -0.88365490
C              4.84029254       -1.17569312       -1.22385668
C             -0.22342906       -1.07210425       -0.94007626
C             -4.20478614        2.92521694        1.00198049
C             -4.83056385        2.43014808        2.30360222
C             -3.85315844        4.40440710        1.13068916
H             -4.74353901        1.00079156       -1.20913144
H             -6.86799309        0.26059588       -1.90661249
H             -7.04670071       -1.09642031       -3.04440932
H             -5.58118720       -0.08872277       -3.09890930
H             -4.90848018       -4.05178412        2.02012038
H             -5.17139786       -5.17205595        0.66165519
H             -3.54353594       -4.51738453        0.96427926
H             -3.18921302       -2.40909013        1.98364229
H             -2.37821772       -0.12963740        2.15927440
H             -3.28688130        2.76050087       -1.44252045
H             -1.88088972        3.44303225       -0.63711534
H             -2.07164982        0.54722292       -1.59092156
H             -1.40962658        1.88096094       -2.53874170
H             -0.93987969        1.60644613        1.12073606
H              0.36897753        2.24949444       -0.76266898
H              2.04646382       -0.64032202        0.26414926
H              2.10148648        1.12025925        0.09132565
H              2.46919863        0.88484091       -2.35086431
H              2.41475030       -0.87905661       -2.20230515
H              4.30482146        2.15344767       -1.16672341
H              6.65703870        2.15412071       -0.55200467
H              8.52747772        1.53201484        0.88020184
H              8.92434750        1.74752922       -0.85084445
H              9.92452511        0.68722733        0.17196722
H              6.72281428       -2.11372668       -0.79783235
H              4.33338588       -2.10921485       -1.41779122
H             -0.41465653       -1.24507397       -2.00135963
H             -1.17243280       -1.11406222       -0.40077272
H              0.41990458       -1.86664304       -0.57084617
H             -4.95479574        2.82315722        0.20907131
H             -4.12141841        2.52932586        3.11912258
H             -5.13486256        1.38937089        2.22377953
H             -5.70930159        3.02649067        2.53438436
H             -3.10432013        4.54755501        1.90321423
H             -3.48803338        4.81971166        0.19543428
H             -4.74412288        4.95819181        1.41443398
H             -1.00643648        2.71403176        3.18244386
