 xtb: 6.6.1 (8d0f1dd)
          04062411133D

 72 73  0     0  0            999 V2000
   -1.8201    2.8470    2.1801 N   0  0  0  0  0  0  0  0  0  0  0  0
   -1.7687    2.2254    1.1044 C   0  0  0  0  0  0  0  0  0  0  0  0
   -2.8931    2.0082    0.1387 C   0  0  0  0  0  0  0  0  0  0  0  0
   -3.3193    0.5481    0.1875 C   0  0  0  0  0  0  0  0  0  0  0  0
   -4.2344    0.0612   -0.7472 C   0  0  0  0  0  0  0  0  0  0  0  0
   -4.6617   -1.2559   -0.7237 C   0  0  0  0  0  0  0  0  0  0  0  0
   -5.5509   -1.8020   -1.5784 O   0  0  0  0  0  0  0  0  0  0  0  0
   -6.1879   -0.9805   -2.5284 C   0  0  0  0  0  0  0  0  0  0  0  0
   -4.1510   -2.1401    0.2647 C   0  0  0  0  0  0  0  0  0  0  0  0
   -4.6217   -3.4029    0.2135 O   0  0  0  0  0  0  0  0  0  0  0  0
   -4.2492   -4.3136    1.2213 C   0  0  0  0  0  0  0  0  0  0  0  0
   -3.2375   -1.6522    1.1850 C   0  0  0  0  0  0  0  0  0  0  0  0
   -2.8312   -0.3243    1.1475 C   0  0  0  0  0  0  0  0  0  0  0  0
   -2.2933    2.3283   -1.2556 C   0  0  0  0  0  0  0  0  0  0  0  0
   -1.2517    1.2971   -1.7232 C   0  0  0  0  0  0  0  0  0  0  0  0
   -0.0138    1.3426   -0.8816 C   0  0  0  0  0  0  0  0  0  0  0  0
    0.8343    0.1613   -0.7242 N   0  0  0  0  0  0  0  0  0  0  0  0
    1.3992    0.0743    0.7290 C   0  0  0  0  0  0  0  0  0  0  0  0
    2.5386   -0.8481    0.8028 C   0  0  0  0  0  0  0  0  0  0  0  0
    3.8382   -0.5105    0.4232 C   0  0  0  0  0  0  0  0  0  0  0  0
    4.2006    0.7642   -0.0786 C   0  0  0  0  0  0  0  0  0  0  0  0
    5.5038    1.0619   -0.4055 C   0  0  0  0  0  0  0  0  0  0  0  0
    6.5163    0.1146   -0.2687 C   0  0  0  0  0  0  0  0  0  0  0  0
    7.8148    0.3078   -0.5464 O   0  0  0  0  0  0  0  0  0  0  0  0
    8.2515    1.5735   -0.9852 C   0  0  0  0  0  0  0  0  0  0  0  0
    6.1776   -1.1892    0.2106 C   0  0  0  0  0  0  0  0  0  0  0  0
    7.2180   -2.0417    0.2969 O   0  0  0  0  0  0  0  0  0  0  0  0
    6.9955   -3.3520    0.7624 C   0  0  0  0  0  0  0  0  0  0  0  0
    4.8752   -1.4753    0.5402 C   0  0  0  0  0  0  0  0  0  0  0  0
    0.2253   -1.1267   -1.0748 C   0  0  0  0  0  0  0  0  0  0  0  0
   -4.1340    2.9057    0.4222 C   0  0  0  0  0  0  0  0  0  0  0  0
   -4.7923    2.5377    1.7490 C   0  0  0  0  0  0  0  0  0  0  0  0
   -3.8086    4.3961    0.4026 C   0  0  0  0  0  0  0  0  0  0  0  0
   -4.6290    0.7278   -1.4957 H   0  0  0  0  0  0  0  0  0  0  0  0
   -6.7371   -0.1646   -2.0489 H   0  0  0  0  0  0  0  0  0  0  0  0
   -6.8893   -1.6283   -3.0505 H   0  0  0  0  0  0  0  0  0  0  0  0
   -5.4735   -0.5687   -3.2487 H   0  0  0  0  0  0  0  0  0  0  0  0
   -4.5293   -3.9490    2.2140 H   0  0  0  0  0  0  0  0  0  0  0  0
   -4.7972   -5.2285    1.0052 H   0  0  0  0  0  0  0  0  0  0  0  0
   -3.1747   -4.5223    1.1979 H   0  0  0  0  0  0  0  0  0  0  0  0
   -2.8447   -2.2964    1.9551 H   0  0  0  0  0  0  0  0  0  0  0  0
   -2.1467    0.0275    1.9042 H   0  0  0  0  0  0  0  0  0  0  0  0
   -3.0970    2.3675   -1.9895 H   0  0  0  0  0  0  0  0  0  0  0  0
   -1.8256    3.3125   -1.2211 H   0  0  0  0  0  0  0  0  0  0  0  0
   -1.7158    0.3126   -1.6971 H   0  0  0  0  0  0  0  0  0  0  0  0
   -1.0181    1.5281   -2.7729 H   0  0  0  0  0  0  0  0  0  0  0  0
   -0.8211    1.7826    0.6332 H   0  0  0  0  0  0  0  0  0  0  0  0
    0.5925    2.2305   -1.0152 H   0  0  0  0  0  0  0  0  0  0  0  0
    0.5674   -0.2431    1.3569 H   0  0  0  0  0  0  0  0  0  0  0  0
    1.6790    1.0969    0.9851 H   0  0  0  0  0  0  0  0  0  0  0  0
    1.6745    0.2784   -1.2916 H   0  0  0  0  0  0  0  0  0  0  0  0
    2.3559   -1.8475    1.1621 H   0  0  0  0  0  0  0  0  0  0  0  0
    3.4589    1.5413   -0.1874 H   0  0  0  0  0  0  0  0  0  0  0  0
    5.7385    2.0495   -0.7692 H   0  0  0  0  0  0  0  0  0  0  0  0
    8.0336    2.3504   -0.2463 H   0  0  0  0  0  0  0  0  0  0  0  0
    7.7991    1.8431   -1.9444 H   0  0  0  0  0  0  0  0  0  0  0  0
    9.3291    1.4847   -1.1078 H   0  0  0  0  0  0  0  0  0  0  0  0
    7.9696   -3.8368    0.7464 H   0  0  0  0  0  0  0  0  0  0  0  0
    6.6061   -3.3533    1.7849 H   0  0  0  0  0  0  0  0  0  0  0  0
    6.3082   -3.8970    0.1080 H   0  0  0  0  0  0  0  0  0  0  0  0
    4.6102   -2.4503    0.9158 H   0  0  0  0  0  0  0  0  0  0  0  0
   -0.0190   -1.1621   -2.1343 H   0  0  0  0  0  0  0  0  0  0  0  0
   -0.6794   -1.2845   -0.4868 H   0  0  0  0  0  0  0  0  0  0  0  0
    0.9395   -1.9182   -0.8506 H   0  0  0  0  0  0  0  0  0  0  0  0
   -4.8514    2.7056   -0.3813 H   0  0  0  0  0  0  0  0  0  0  0  0
   -4.1133    2.7411    2.5712 H   0  0  0  0  0  0  0  0  0  0  0  0
   -5.0692    1.4865    1.7723 H   0  0  0  0  0  0  0  0  0  0  0  0
   -5.6913    3.1324    1.8879 H   0  0  0  0  0  0  0  0  0  0  0  0
   -3.0739    4.6350    1.1658 H   0  0  0  0  0  0  0  0  0  0  0  0
   -3.4353    4.7171   -0.5661 H   0  0  0  0  0  0  0  0  0  0  0  0
   -4.7120    4.9619    0.6146 H   0  0  0  0  0  0  0  0  0  0  0  0
   -0.9803    2.9619    2.7359 H   0  0  0  0  0  0  0  0  0  0  0  0
  1  2  2  0  0  0  0
  2  3  1  0  0  0  0
  3  4  1  0  0  0  0
  4  5  4  0  0  0  0
  5  6  4  0  0  0  0
  6  7  1  0  0  0  0
  7  8  1  0  0  0  0
  6  9  4  0  0  0  0
  9 10  1  0  0  0  0
 10 11  1  0  0  0  0
  9 12  4  0  0  0  0
  4 13  4  0  0  0  0
 12 13  4  0  0  0  0
  3 14  1  0  0  0  0
 14 15  1  0  0  0  0
 15 16  1  0  0  0  0
 16 17  1  0  0  0  0
 17 18  1  0  0  0  0
 18 19  1  0  0  0  0
 19 20  4  0  0  0  0
 20 21  4  0  0  0  0
 21 22  4  0  0  0  0
 22 23  4  0  0  0  0
 23 24  1  0  0  0  0
 24 25  1  0  0  0  0
 23 26  1  0  0  0  0
 26 27  1  0  0  0  0
 27 28  1  0  0  0  0
 20 29  4  0  0  0  0
 26 29  4  0  0  0  0
 17 30  1  0  0  0  0
  3 31  1  0  0  0  0
 31 32  1  0  0  0  0
 31 33  1  0  0  0  0
  5 34  1  0  0  0  0
  8 35  1  0  0  0  0
  8 36  1  0  0  0  0
  8 37  1  0  0  0  0
 11 38  1  0  0  0  0
 11 39  1  0  0  0  0
 11 40  1  0  0  0  0
 12 41  1  0  0  0  0
 13 42  1  0  0  0  0
 14 43  1  0  0  0  0
 14 44  1  0  0  0  0
 15 45  1  0  0  0  0
 15 46  1  0  0  0  0
  2 47  1  0  0  0  0
 16 48  1  0  0  0  0
 18 49  1  0  0  0  0
 18 50  1  0  0  0  0
 17 51  1  0  0  0  0
 19 52  1  0  0  0  0
 21 53  1  0  0  0  0
 22 54  1  0  0  0  0
 25 55  1  0  0  0  0
 25 56  1  0  0  0  0
 25 57  1  0  0  0  0
 28 58  1  0  0  0  0
 28 59  1  0  0  0  0
 28 60  1  0  0  0  0
 29 61  1  0  0  0  0
 30 62  1  0  0  0  0
 30 63  1  0  0  0  0
 30 64  1  0  0  0  0
 31 65  1  0  0  0  0
 32 66  1  0  0  0  0
 32 67  1  0  0  0  0
 32 68  1  0  0  0  0
 33 69  1  0  0  0  0
 33 70  1  0  0  0  0
 33 71  1  0  0  0  0
  1 72  1  0  0  0  0
M  CHG  1   1   1
M  END
