           5
 
C             -5.83111728        2.77596630        2.70327778
H             -4.87985203        2.72437644        2.18022963
H             -5.66590986        2.70458291        3.77055114
H             -6.45898606        1.95583570        2.38001813
H             -6.31807839        3.71470669        2.47672756
