 xtb: 6.6.1 (8d0f1dd)
          04062411143D

 72 72  0     0  0            999 V2000
   -1.9339    3.1756    1.9798 N   0  0  0  0  0  0  0  0  0  0  0  0
   -1.7725    2.3707    1.0369 C   0  0  0  0  0  0  0  0  0  0  0  0
   -2.8737    2.0873    0.0349 C   0  0  0  0  0  0  0  0  0  0  0  0
   -3.3973    0.6700    0.2006 C   0  0  0  0  0  0  0  0  0  0  0  0
   -4.4093    0.2249   -0.6527 C   0  0  0  0  0  0  0  0  0  0  0  0
   -4.9400   -1.0479   -0.5371 C   0  0  0  0  0  0  0  0  0  0  0  0
   -5.9285   -1.5579   -1.3018 O   0  0  0  0  0  0  0  0  0  0  0  0
   -6.5555   -0.7315   -2.2540 C   0  0  0  0  0  0  0  0  0  0  0  0
   -4.4356   -1.9265    0.4594 C   0  0  0  0  0  0  0  0  0  0  0  0
   -5.0042   -3.1505    0.4905 O   0  0  0  0  0  0  0  0  0  0  0  0
   -4.5870   -4.0717    1.4713 C   0  0  0  0  0  0  0  0  0  0  0  0
   -3.4356   -1.4751    1.3042 C   0  0  0  0  0  0  0  0  0  0  0  0
   -2.9258   -0.1875    1.1783 C   0  0  0  0  0  0  0  0  0  0  0  0
   -2.2460    2.2715   -1.3854 C   0  0  0  0  0  0  0  0  0  0  0  0
   -1.3221    1.1257   -1.8286 C   0  0  0  0  0  0  0  0  0  0  0  0
   -0.0160    1.1016   -1.1337 C   0  0  0  0  0  0  0  0  0  0  0  0
    0.5785    0.0152   -0.6458 N   0  0  0  0  0  0  0  0  0  0  0  0
    1.9559    0.0733   -0.2179 C   0  0  0  0  0  0  0  0  0  0  0  0
    2.9187   -0.3953   -1.3272 C   0  0  0  0  0  0  0  0  0  0  0  0
    4.3427   -0.1863   -0.8948 C   0  0  0  0  0  0  0  0  0  0  0  0
    4.9768    1.0232   -1.1253 C   0  0  0  0  0  0  0  0  0  0  0  0
    6.2814    1.2331   -0.7055 C   0  0  0  0  0  0  0  0  0  0  0  0
    6.9774    0.2351   -0.0399 C   0  0  0  0  0  0  0  0  0  0  0  0
    8.2435    0.3260    0.4110 O   0  0  0  0  0  0  0  0  0  0  0  0
    8.9614    1.5204    0.2046 C   0  0  0  0  0  0  0  0  0  0  0  0
    6.3342   -1.0092    0.2042 C   0  0  0  0  0  0  0  0  0  0  0  0
    7.0846   -1.9231    0.8531 O   0  0  0  0  0  0  0  0  0  0  0  0
    6.5470   -3.1978    1.1111 C   0  0  0  0  0  0  0  0  0  0  0  0
    5.0294   -1.1954   -0.2234 C   0  0  0  0  0  0  0  0  0  0  0  0
   -0.0559   -1.2806   -0.6700 C   0  0  0  0  0  0  0  0  0  0  0  0
   -3.9947    3.0555    0.1935 C   0  0  0  0  0  0  0  0  0  0  0  0
   -5.7476    0.8466    2.8398 C   0  0  0  0  0  0  0  0  0  0  0  0
   -3.8346    4.5060    0.0228 C   0  0  0  0  0  0  0  0  0  0  0  0
   -4.7897    0.8981   -1.4039 H   0  0  0  0  0  0  0  0  0  0  0  0
   -6.9947    0.1555   -1.7874 H   0  0  0  0  0  0  0  0  0  0  0  0
   -7.3470   -1.3375   -2.6905 H   0  0  0  0  0  0  0  0  0  0  0  0
   -5.8599   -0.4255   -3.0418 H   0  0  0  0  0  0  0  0  0  0  0  0
   -4.7713   -3.6934    2.4813 H   0  0  0  0  0  0  0  0  0  0  0  0
   -5.1852   -4.9656    1.3068 H   0  0  0  0  0  0  0  0  0  0  0  0
   -3.5268   -4.3208    1.3604 H   0  0  0  0  0  0  0  0  0  0  0  0
   -3.0527   -2.1126    2.0842 H   0  0  0  0  0  0  0  0  0  0  0  0
   -2.1700    0.1404    1.8752 H   0  0  0  0  0  0  0  0  0  0  0  0
   -3.0600    2.3431   -2.1064 H   0  0  0  0  0  0  0  0  0  0  0  0
   -1.7014    3.2161   -1.4062 H   0  0  0  0  0  0  0  0  0  0  0  0
   -1.8490    0.1782   -1.7297 H   0  0  0  0  0  0  0  0  0  0  0  0
   -1.1225    1.2853   -2.8968 H   0  0  0  0  0  0  0  0  0  0  0  0
   -0.8378    1.8283    0.8164 H   0  0  0  0  0  0  0  0  0  0  0  0
    0.5625    2.0129   -1.1218 H   0  0  0  0  0  0  0  0  0  0  0  0
    2.0843   -0.5555    0.6665 H   0  0  0  0  0  0  0  0  0  0  0  0
    2.2066    1.1007    0.0543 H   0  0  0  0  0  0  0  0  0  0  0  0
    2.7169    0.1844   -2.2300 H   0  0  0  0  0  0  0  0  0  0  0  0
    2.7402   -1.4488   -1.5457 H   0  0  0  0  0  0  0  0  0  0  0  0
    4.4601    1.8131   -1.6493 H   0  0  0  0  0  0  0  0  0  0  0  0
    6.7509    2.1816   -0.9085 H   0  0  0  0  0  0  0  0  0  0  0  0
    8.4767    2.3696    0.6960 H   0  0  0  0  0  0  0  0  0  0  0  0
    9.0836    1.7355   -0.8612 H   0  0  0  0  0  0  0  0  0  0  0  0
    9.9389    1.3542    0.6533 H   0  0  0  0  0  0  0  0  0  0  0  0
    7.3360   -3.7501    1.6178 H   0  0  0  0  0  0  0  0  0  0  0  0
    5.6705   -3.1396    1.7645 H   0  0  0  0  0  0  0  0  0  0  0  0
    6.2803   -3.7162    0.1847 H   0  0  0  0  0  0  0  0  0  0  0  0
    4.5351   -2.1385   -0.0497 H   0  0  0  0  0  0  0  0  0  0  0  0
   -0.1606   -1.6539   -1.6917 H   0  0  0  0  0  0  0  0  0  0  0  0
   -1.0468   -1.2277   -0.2124 H   0  0  0  0  0  0  0  0  0  0  0  0
    0.5491   -1.9848   -0.1044 H   0  0  0  0  0  0  0  0  0  0  0  0
   -4.9758    2.6666    0.4126 H   0  0  0  0  0  0  0  0  0  0  0  0
   -4.8892    0.8414    3.4748 H   0  0  0  0  0  0  0  0  0  0  0  0
   -6.0872   -0.0576    2.3861 H   0  0  0  0  0  0  0  0  0  0  0  0
   -6.2964    1.7520    2.7059 H   0  0  0  0  0  0  0  0  0  0  0  0
   -2.7973    4.8143    0.1341 H   0  0  0  0  0  0  0  0  0  0  0  0
   -4.1807    4.8232   -0.9714 H   0  0  0  0  0  0  0  0  0  0  0  0
   -4.4502    5.0407    0.7475 H   0  0  0  0  0  0  0  0  0  0  0  0
   -1.1488    3.3317    2.6047 H   0  0  0  0  0  0  0  0  0  0  0  0
  1  2  2  0  0  0  0
  2  3  1  0  0  0  0
  3  4  1  0  0  0  0
  4  5  4  0  0  0  0
  5  6  4  0  0  0  0
  6  7  1  0  0  0  0
  7  8  1  0  0  0  0
  6  9  4  0  0  0  0
  9 10  1  0  0  0  0
 10 11  1  0  0  0  0
  9 12  4  0  0  0  0
  4 13  4  0  0  0  0
 12 13  4  0  0  0  0
  3 14  1  0  0  0  0
 14 15  1  0  0  0  0
 15 16  1  0  0  0  0
 16 17  4  0  0  0  0
 17 18  1  0  0  0  0
 18 19  1  0  0  0  0
 19 20  1  0  0  0  0
 20 21  4  0  0  0  0
 21 22  4  0  0  0  0
 22 23  4  0  0  0  0
 23 24  1  0  0  0  0
 24 25  1  0  0  0  0
 23 26  4  0  0  0  0
 26 27  1  0  0  0  0
 27 28  1  0  0  0  0
 20 29  4  0  0  0  0
 26 29  4  0  0  0  0
 17 30  1  0  0  0  0
  3 31  1  0  0  0  0
 31 33  1  0  0  0  0
  5 34  1  0  0  0  0
  8 35  1  0  0  0  0
  8 36  1  0  0  0  0
  8 37  1  0  0  0  0
 11 38  1  0  0  0  0
 11 39  1  0  0  0  0
 11 40  1  0  0  0  0
 12 41  1  0  0  0  0
 13 42  1  0  0  0  0
 14 43  1  0  0  0  0
 14 44  1  0  0  0  0
 15 45  1  0  0  0  0
 15 46  1  0  0  0  0
  2 47  1  0  0  0  0
 16 48  1  0  0  0  0
 18 49  1  0  0  0  0
 18 50  1  0  0  0  0
 19 51  1  0  0  0  0
 19 52  1  0  0  0  0
 21 53  1  0  0  0  0
 22 54  1  0  0  0  0
 25 55  1  0  0  0  0
 25 56  1  0  0  0  0
 25 57  1  0  0  0  0
 28 58  1  0  0  0  0
 28 59  1  0  0  0  0
 28 60  1  0  0  0  0
 29 61  1  0  0  0  0
 30 62  1  0  0  0  0
 30 63  1  0  0  0  0
 30 64  1  0  0  0  0
 31 65  1  0  0  0  0
 32 66  1  0  0  0  0
 32 67  1  0  0  0  0
 32 68  1  0  0  0  0
 33 69  1  0  0  0  0
 33 70  1  0  0  0  0
 33 71  1  0  0  0  0
  1 72  1  0  0  0  0
M  CHG  1   1   1
M  END
