 xtb: 6.6.1 (8d0f1dd)
          06052419583D

 25 25  0     0  0            999 V2000
    3.2947    1.0871   -0.0053 C   0  0  0  0  0  0  0  0  0  0  0  0
    2.3383    0.0128   -0.0101 N   0  0  0  0  0  0  0  0  0  0  0  0
    2.6020   -1.2903   -0.0470 C   0  0  0  0  0  0  0  0  0  0  0  0
    1.4458   -1.9936   -0.0226 N   0  0  0  0  0  0  0  0  0  0  0  0
    0.4128   -1.1065    0.0328 C   0  0  0  0  0  0  0  0  0  0  0  0
    0.9694    0.1666    0.0431 C   0  0  0  0  0  0  0  0  0  0  0  0
    0.1720    1.3549    0.0891 C   0  0  0  0  0  0  0  0  0  0  0  0
    0.5522    2.5042    0.0810 O   0  0  0  0  0  0  0  0  0  0  0  0
   -1.2295    1.0390    0.1519 N   0  0  0  0  0  0  0  0  0  0  0  0
   -2.0858    2.0682    0.2414 C   0  0  0  0  0  0  0  0  0  0  0  0
   -1.7995   -0.2647    0.1217 C   0  0  0  0  0  0  0  0  0  0  0  0
   -2.9887   -0.4243    0.1467 O   0  0  0  0  0  0  0  0  0  0  0  0
   -0.9152   -1.3392    0.0638 N   0  0  0  0  0  0  0  0  0  0  0  0
   -1.4535   -2.6879    0.0371 C   0  0  0  0  0  0  0  0  0  0  0  0
    3.7945    1.1454    0.9630 H   0  0  0  0  0  0  0  0  0  0  0  0
    4.0437    0.9281   -0.7792 H   0  0  0  0  0  0  0  0  0  0  0  0
    2.7700    2.0249   -0.1836 H   0  0  0  0  0  0  0  0  0  0  0  0
    3.5803   -1.7251   -0.0928 H   0  0  0  0  0  0  0  0  0  0  0  0
   -1.6725    3.0583    0.2661 H   0  0  0  0  0  0  0  0  0  0  0  0
   -4.0971    3.4556   -1.4020 H   0  0  0  0  0  0  0  0  0  0  0  0
   -3.1375    1.8611    0.2872 H   0  0  0  0  0  0  0  0  0  0  0  0
   -1.1323   -3.2431    0.9185 H   0  0  0  0  0  0  0  0  0  0  0  0
   -1.1399   -3.2029   -0.8704 H   0  0  0  0  0  0  0  0  0  0  0  0
   -2.5399   -2.6096    0.0442 H   0  0  0  0  0  0  0  0  0  0  0  0
    1.3759   -3.0008   -0.0433 H   0  0  0  0  0  0  0  0  0  0  0  0
  1  2  1  0  0  0  0
  2  3  4  0  0  0  0
  3  4  4  0  0  0  0
  4  5  1  0  0  0  0
  2  6  1  0  0  0  0
  5  6  4  0  0  0  0
  6  7  1  0  0  0  0
  7  8  2  0  0  0  0
  7  9  1  0  0  0  0
  9 10  4  0  0  0  0
  9 11  1  0  0  0  0
 11 12  2  0  0  0  0
  5 13  1  0  0  0  0
 11 13  1  0  0  0  0
 13 14  1  0  0  0  0
  1 15  1  0  0  0  0
  1 16  1  0  0  0  0
  1 17  1  0  0  0  0
  3 18  1  0  0  0  0
 10 19  1  0  0  0  0
 10 21  1  0  0  0  0
 14 22  1  0  0  0  0
 14 23  1  0  0  0  0
 14 24  1  0  0  0  0
  4 25  1  0  0  0  0
M  CHG  1   1   1
M  END
