 xtb: 6.6.1 (8d0f1dd)
          04062411153D

 72 73  0     0  0            999 V2000
   -2.3514    2.3388    2.5895 N   0  0  0  0  0  0  0  0  0  0  0  0
   -2.2234    2.6402    1.3804 C   0  0  0  0  0  0  0  0  0  0  0  0
   -3.1226    2.0698    0.2972 C   0  0  0  0  0  0  0  0  0  0  0  0
   -3.5298    0.6108    0.4813 C   0  0  0  0  0  0  0  0  0  0  0  0
   -4.3142    0.0396   -0.5252 C   0  0  0  0  0  0  0  0  0  0  0  0
   -4.7262   -1.2814   -0.4635 C   0  0  0  0  0  0  0  0  0  0  0  0
   -5.5010   -1.9011   -1.3757 O   0  0  0  0  0  0  0  0  0  0  0  0
   -6.0612   -1.1539   -2.4300 C   0  0  0  0  0  0  0  0  0  0  0  0
   -4.3199   -2.0886    0.6362 C   0  0  0  0  0  0  0  0  0  0  0  0
   -4.7504   -3.3631    0.6103 O   0  0  0  0  0  0  0  0  0  0  0  0
   -4.4393   -4.2162    1.6877 C   0  0  0  0  0  0  0  0  0  0  0  0
   -3.5382   -1.5136    1.6271 C   0  0  0  0  0  0  0  0  0  0  0  0
   -3.1538   -0.1822    1.5532 C   0  0  0  0  0  0  0  0  0  0  0  0
   -2.4193    2.2002   -1.0117 C   0  0  0  0  0  0  0  0  0  0  0  0
   -1.4556    1.1992   -1.4984 C   0  0  0  0  0  0  0  0  0  0  0  0
   -0.3351    0.8996   -0.4695 C   0  0  0  0  0  0  0  0  0  0  0  0
    0.5703   -0.1050   -0.9556 N   0  0  0  0  0  0  0  0  0  0  0  0
    1.9346   -0.0428   -0.4850 C   0  0  0  0  0  0  0  0  0  0  0  0
    2.9319   -0.4038   -1.6028 C   0  0  0  0  0  0  0  0  0  0  0  0
    4.3374   -0.1984   -1.1210 C   0  0  0  0  0  0  0  0  0  0  0  0
    4.9868    1.0127   -1.3208 C   0  0  0  0  0  0  0  0  0  0  0  0
    6.2695    1.2217   -0.8420 C   0  0  0  0  0  0  0  0  0  0  0  0
    6.9351    0.2218   -0.1441 C   0  0  0  0  0  0  0  0  0  0  0  0
    8.1738    0.3130    0.3687 O   0  0  0  0  0  0  0  0  0  0  0  0
    8.9078    1.5036    0.1965 C   0  0  0  0  0  0  0  0  0  0  0  0
    6.2795   -1.0258    0.0657 C   0  0  0  0  0  0  0  0  0  0  0  0
    6.9968   -1.9407    0.7428 O   0  0  0  0  0  0  0  0  0  0  0  0
    6.4477   -3.2157    0.9788 C   0  0  0  0  0  0  0  0  0  0  0  0
    4.9941   -1.2086   -0.4233 C   0  0  0  0  0  0  0  0  0  0  0  0
    0.0019   -1.4287   -1.0401 C   0  0  0  0  0  0  0  0  0  0  0  0
   -4.4166    2.9656    0.3218 C   0  0  0  0  0  0  0  0  0  0  0  0
   -5.3028    2.5975    1.5070 C   0  0  0  0  0  0  0  0  0  0  0  0
   -4.0940    4.4586    0.3616 C   0  0  0  0  0  0  0  0  0  0  0  0
   -4.6082    0.6475   -1.3663 H   0  0  0  0  0  0  0  0  0  0  0  0
   -6.6589   -0.3183   -2.0539 H   0  0  0  0  0  0  0  0  0  0  0  0
   -6.7068   -1.8458   -2.9675 H   0  0  0  0  0  0  0  0  0  0  0  0
   -5.2914   -0.7764   -3.1106 H   0  0  0  0  0  0  0  0  0  0  0  0
   -4.8348   -3.8299    2.6315 H   0  0  0  0  0  0  0  0  0  0  0  0
   -4.9183   -5.1657    1.4569 H   0  0  0  0  0  0  0  0  0  0  0  0
   -3.3592   -4.3682    1.7790 H   0  0  0  0  0  0  0  0  0  0  0  0
   -3.2269   -2.0964    2.4788 H   0  0  0  0  0  0  0  0  0  0  0  0
   -2.5768    0.2387    2.3598 H   0  0  0  0  0  0  0  0  0  0  0  0
   -2.5885    3.0849   -1.6011 H   0  0  0  0  0  0  0  0  0  0  0  0
   -1.5058    3.3739    0.9985 H   0  0  0  0  0  0  0  0  0  0  0  0
   -1.9690    0.2497   -1.6886 H   0  0  0  0  0  0  0  0  0  0  0  0
   -0.9991    1.5304   -2.4313 H   0  0  0  0  0  0  0  0  0  0  0  0
   -0.8081    0.5926    0.4770 H   0  0  0  0  0  0  0  0  0  0  0  0
    0.2262    1.8197   -0.2966 H   0  0  0  0  0  0  0  0  0  0  0  0
    2.0944   -0.7133    0.3721 H   0  0  0  0  0  0  0  0  0  0  0  0
    2.1507    0.9750   -0.1547 H   0  0  0  0  0  0  0  0  0  0  0  0
    2.7304    0.2368   -2.4615 H   0  0  0  0  0  0  0  0  0  0  0  0
    2.7874   -1.4405   -1.9075 H   0  0  0  0  0  0  0  0  0  0  0  0
    4.4919    1.8030   -1.8640 H   0  0  0  0  0  0  0  0  0  0  0  0
    6.7487    2.1707   -1.0193 H   0  0  0  0  0  0  0  0  0  0  0  0
    8.4056    2.3550    0.6659 H   0  0  0  0  0  0  0  0  0  0  0  0
    9.0785    1.7183   -0.8626 H   0  0  0  0  0  0  0  0  0  0  0  0
    9.8630    1.3317    0.6889 H   0  0  0  0  0  0  0  0  0  0  0  0
    7.2166   -3.7706    1.5130 H   0  0  0  0  0  0  0  0  0  0  0  0
    5.5479   -3.1556    1.5990 H   0  0  0  0  0  0  0  0  0  0  0  0
    6.2137   -3.7309    0.0422 H   0  0  0  0  0  0  0  0  0  0  0  0
    4.4905   -2.1505   -0.2726 H   0  0  0  0  0  0  0  0  0  0  0  0
   -0.6577   -1.4990   -1.9061 H   0  0  0  0  0  0  0  0  0  0  0  0
   -0.5800   -1.6794   -0.1429 H   0  0  0  0  0  0  0  0  0  0  0  0
    0.7919   -2.1642   -1.1612 H   0  0  0  0  0  0  0  0  0  0  0  0
   -4.9590    2.7577   -0.6059 H   0  0  0  0  0  0  0  0  0  0  0  0
   -4.7245    2.6101    2.4283 H   0  0  0  0  0  0  0  0  0  0  0  0
   -5.7324    1.6064    1.3873 H   0  0  0  0  0  0  0  0  0  0  0  0
   -6.1137    3.3160    1.5959 H   0  0  0  0  0  0  0  0  0  0  0  0
   -3.7108    4.7455    1.3379 H   0  0  0  0  0  0  0  0  0  0  0  0
   -3.3656    4.7408   -0.3946 H   0  0  0  0  0  0  0  0  0  0  0  0
   -5.0018    5.0283    0.1779 H   0  0  0  0  0  0  0  0  0  0  0  0
   -1.7461    2.8130    3.2530 H   0  0  0  0  0  0  0  0  0  0  0  0
  1  2  2  0  0  0  0
  2  3  1  0  0  0  0
  3  4  1  0  0  0  0
  4  5  4  0  0  0  0
  5  6  4  0  0  0  0
  6  7  1  0  0  0  0
  7  8  1  0  0  0  0
  6  9  4  0  0  0  0
  9 10  1  0  0  0  0
 10 11  1  0  0  0  0
  9 12  4  0  0  0  0
  4 13  4  0  0  0  0
 12 13  4  0  0  0  0
  3 14  1  0  0  0  0
 14 15  1  0  0  0  0
 15 16  1  0  0  0  0
 16 17  1  0  0  0  0
 17 18  1  0  0  0  0
 18 19  1  0  0  0  0
 19 20  1  0  0  0  0
 20 21  4  0  0  0  0
 21 22  4  0  0  0  0
 22 23  4  0  0  0  0
 23 24  1  0  0  0  0
 24 25  1  0  0  0  0
 23 26  4  0  0  0  0
 26 27  1  0  0  0  0
 27 28  1  0  0  0  0
 20 29  4  0  0  0  0
 26 29  4  0  0  0  0
 17 30  1  0  0  0  0
  3 31  1  0  0  0  0
 31 32  1  0  0  0  0
 31 33  1  0  0  0  0
  5 34  1  0  0  0  0
  8 35  1  0  0  0  0
  8 36  1  0  0  0  0
  8 37  1  0  0  0  0
 11 38  1  0  0  0  0
 11 39  1  0  0  0  0
 11 40  1  0  0  0  0
 12 41  1  0  0  0  0
 13 42  1  0  0  0  0
 14 43  1  0  0  0  0
  2 44  1  0  0  0  0
 15 45  1  0  0  0  0
 15 46  1  0  0  0  0
 16 47  1  0  0  0  0
 16 48  1  0  0  0  0
 18 49  1  0  0  0  0
 18 50  1  0  0  0  0
 19 51  1  0  0  0  0
 19 52  1  0  0  0  0
 21 53  1  0  0  0  0
 22 54  1  0  0  0  0
 25 55  1  0  0  0  0
 25 56  1  0  0  0  0
 25 57  1  0  0  0  0
 28 58  1  0  0  0  0
 28 59  1  0  0  0  0
 28 60  1  0  0  0  0
 29 61  1  0  0  0  0
 30 62  1  0  0  0  0
 30 63  1  0  0  0  0
 30 64  1  0  0  0  0
 31 65  1  0  0  0  0
 32 66  1  0  0  0  0
 32 67  1  0  0  0  0
 32 68  1  0  0  0  0
 33 69  1  0  0  0  0
 33 70  1  0  0  0  0
 33 71  1  0  0  0  0
  1 72  1  0  0  0  0
M  CHG  1   1   1
M  END
