 xtb: 6.6.1 (8d0f1dd)
          04062411123D

 72 73  0     0  0            999 V2000
   -2.7022    3.1339    2.2312 N   0  0  0  0  0  0  0  0  0  0  0  0
   -2.2832    2.2368    1.2843 C   0  0  0  0  0  0  0  0  0  0  0  0
   -2.8319    2.4615    0.0807 C   0  0  0  0  0  0  0  0  0  0  0  0
   -4.7059    0.0689    1.7048 C   0  0  0  0  0  0  0  0  0  0  0  0
   -5.2220   -0.0711    0.4212 C   0  0  0  0  0  0  0  0  0  0  0  0
   -4.9039   -1.1792   -0.3522 C   0  0  0  0  0  0  0  0  0  0  0  0
   -5.3426   -1.4103   -1.6127 O   0  0  0  0  0  0  0  0  0  0  0  0
   -6.3242   -0.5585   -2.1546 C   0  0  0  0  0  0  0  0  0  0  0  0
   -4.0509   -2.1771    0.1846 C   0  0  0  0  0  0  0  0  0  0  0  0
   -3.7862   -3.2234   -0.6403 O   0  0  0  0  0  0  0  0  0  0  0  0
   -3.1781   -4.3735   -0.1019 C   0  0  0  0  0  0  0  0  0  0  0  0
   -3.5480   -2.0244    1.4673 C   0  0  0  0  0  0  0  0  0  0  0  0
   -3.8712   -0.9021    2.2237 C   0  0  0  0  0  0  0  0  0  0  0  0
   -2.5922    1.7618   -1.2136 C   0  0  0  0  0  0  0  0  0  0  0  0
   -1.8217    0.4518   -1.0552 C   0  0  0  0  0  0  0  0  0  0  0  0
   -0.4127    0.6707   -0.6679 C   0  0  0  0  0  0  0  0  0  0  0  0
    0.3771   -0.2924   -0.2095 N   0  0  0  0  0  0  0  0  0  0  0  0
    1.7758   -0.0530    0.0523 C   0  0  0  0  0  0  0  0  0  0  0  0
    2.6693   -0.5226   -1.1127 C   0  0  0  0  0  0  0  0  0  0  0  0
    4.1125   -0.2452   -0.7963 C   0  0  0  0  0  0  0  0  0  0  0  0
    4.6617    1.0008   -1.0478 C   0  0  0  0  0  0  0  0  0  0  0  0
    5.9838    1.2716   -0.7295 C   0  0  0  0  0  0  0  0  0  0  0  0
    6.7837    0.2986   -0.1491 C   0  0  0  0  0  0  0  0  0  0  0  0
    8.0762    0.4493    0.2014 O   0  0  0  0  0  0  0  0  0  0  0  0
    8.7098    1.6858   -0.0315 C   0  0  0  0  0  0  0  0  0  0  0  0
    6.2298   -0.9839    0.1115 C   0  0  0  0  0  0  0  0  0  0  0  0
    7.0790   -1.8725    0.6690 O   0  0  0  0  0  0  0  0  0  0  0  0
    6.6332   -3.1819    0.9271 C   0  0  0  0  0  0  0  0  0  0  0  0
    4.9049   -1.2301   -0.2108 C   0  0  0  0  0  0  0  0  0  0  0  0
   -0.1100   -1.6430   -0.0801 C   0  0  0  0  0  0  0  0  0  0  0  0
   -3.7907    3.6282    0.1848 C   0  0  0  0  0  0  0  0  0  0  0  0
   -3.7875    3.9359    1.6979 C   0  0  0  0  0  0  0  0  0  0  0  0
   -3.3312    4.8267   -0.6482 C   0  0  0  0  0  0  0  0  0  0  0  0
   -5.8853    0.6859    0.0385 H   0  0  0  0  0  0  0  0  0  0  0  0
   -7.2128   -0.5141   -1.5184 H   0  0  0  0  0  0  0  0  0  0  0  0
   -6.5918   -0.9918   -3.1164 H   0  0  0  0  0  0  0  0  0  0  0  0
   -5.9382    0.4545   -2.3112 H   0  0  0  0  0  0  0  0  0  0  0  0
   -3.7252   -4.7462    0.7685 H   0  0  0  0  0  0  0  0  0  0  0  0
   -3.2098   -5.1199   -0.8932 H   0  0  0  0  0  0  0  0  0  0  0  0
   -2.1343   -4.1892    0.1763 H   0  0  0  0  0  0  0  0  0  0  0  0
   -2.9193   -2.7894    1.8970 H   0  0  0  0  0  0  0  0  0  0  0  0
   -3.4768   -0.8068    3.2226 H   0  0  0  0  0  0  0  0  0  0  0  0
   -3.5594    1.5484   -1.6764 H   0  0  0  0  0  0  0  0  0  0  0  0
   -2.0530    2.4241   -1.8989 H   0  0  0  0  0  0  0  0  0  0  0  0
   -2.3344   -0.1750   -0.3194 H   0  0  0  0  0  0  0  0  0  0  0  0
   -1.8590   -0.0978   -2.0054 H   0  0  0  0  0  0  0  0  0  0  0  0
   -1.5531    1.4959    1.5567 H   0  0  0  0  0  0  0  0  0  0  0  0
    0.0155    1.6543   -0.7659 H   0  0  0  0  0  0  0  0  0  0  0  0
    2.0634   -0.5818    0.9650 H   0  0  0  0  0  0  0  0  0  0  0  0
    1.9332    1.0152    0.2123 H   0  0  0  0  0  0  0  0  0  0  0  0
    2.3749    0.0129   -2.0169 H   0  0  0  0  0  0  0  0  0  0  0  0
    2.5214   -1.5900   -1.2807 H   0  0  0  0  0  0  0  0  0  0  0  0
    4.0630    1.7723   -1.5078 H   0  0  0  0  0  0  0  0  0  0  0  0
    6.3846    2.2486   -0.9441 H   0  0  0  0  0  0  0  0  0  0  0  0
    8.2245    2.4954    0.5223 H   0  0  0  0  0  0  0  0  0  0  0  0
    8.7291    1.9319   -1.0974 H   0  0  0  0  0  0  0  0  0  0  0  0
    9.7294    1.5634    0.3288 H   0  0  0  0  0  0  0  0  0  0  0  0
    7.4913   -3.7055    1.3441 H   0  0  0  0  0  0  0  0  0  0  0  0
    5.8157   -3.1924    1.6553 H   0  0  0  0  0  0  0  0  0  0  0  0
    6.3135   -3.6856    0.0094 H   0  0  0  0  0  0  0  0  0  0  0  0
    4.4772   -2.2022   -0.0209 H   0  0  0  0  0  0  0  0  0  0  0  0
   -0.4654   -2.0256   -1.0394 H   0  0  0  0  0  0  0  0  0  0  0  0
   -0.9423   -1.6771    0.6274 H   0  0  0  0  0  0  0  0  0  0  0  0
    0.6877   -2.2852    0.2840 H   0  0  0  0  0  0  0  0  0  0  0  0
   -4.7902    3.3393   -0.1553 H   0  0  0  0  0  0  0  0  0  0  0  0
   -4.9734    0.9262    2.2899 H   0  0  0  0  0  0  0  0  0  0  0  0
   -4.7412    3.6694    2.1672 H   0  0  0  0  0  0  0  0  0  0  0  0
   -3.5985    4.9940    1.8958 H   0  0  0  0  0  0  0  0  0  0  0  0
   -2.3238    5.1197   -0.3633 H   0  0  0  0  0  0  0  0  0  0  0  0
   -3.3395    4.5813   -1.7068 H   0  0  0  0  0  0  0  0  0  0  0  0
   -3.9979    5.6702   -0.4897 H   0  0  0  0  0  0  0  0  0  0  0  0
   -2.6940    2.8988    3.2100 H   0  0  0  0  0  0  0  0  0  0  0  0
  1  2  1  0  0  0  0
  2  3  2  0  0  0  0
  4  5  4  0  0  0  0
  5  6  4  0  0  0  0
  6  7  1  0  0  0  0
  7  8  1  0  0  0  0
  6  9  4  0  0  0  0
  9 10  1  0  0  0  0
 10 11  1  0  0  0  0
  9 12  4  0  0  0  0
  4 13  4  0  0  0  0
 12 13  4  0  0  0  0
  3 14  1  0  0  0  0
 14 15  1  0  0  0  0
 15 16  1  0  0  0  0
 16 17  4  0  0  0  0
 17 18  1  0  0  0  0
 18 19  1  0  0  0  0
 19 20  1  0  0  0  0
 20 21  4  0  0  0  0
 21 22  4  0  0  0  0
 22 23  4  0  0  0  0
 23 24  1  0  0  0  0
 24 25  1  0  0  0  0
 23 26  4  0  0  0  0
 26 27  1  0  0  0  0
 27 28  1  0  0  0  0
 20 29  4  0  0  0  0
 26 29  4  0  0  0  0
 17 30  1  0  0  0  0
  3 31  1  0  0  0  0
  1 32  1  0  0  0  0
 31 32  1  0  0  0  0
 31 33  1  0  0  0  0
  5 34  1  0  0  0  0
  8 35  1  0  0  0  0
  8 36  1  0  0  0  0
  8 37  1  0  0  0  0
 11 38  1  0  0  0  0
 11 39  1  0  0  0  0
 11 40  1  0  0  0  0
 12 41  1  0  0  0  0
 13 42  1  0  0  0  0
 14 43  1  0  0  0  0
 14 44  1  0  0  0  0
 15 45  1  0  0  0  0
 15 46  1  0  0  0  0
  2 47  1  0  0  0  0
 16 48  1  0  0  0  0
 18 49  1  0  0  0  0
 18 50  1  0  0  0  0
 19 51  1  0  0  0  0
 19 52  1  0  0  0  0
 21 53  1  0  0  0  0
 22 54  1  0  0  0  0
 25 55  1  0  0  0  0
 25 56  1  0  0  0  0
 25 57  1  0  0  0  0
 28 58  1  0  0  0  0
 28 59  1  0  0  0  0
 28 60  1  0  0  0  0
 29 61  1  0  0  0  0
 30 62  1  0  0  0  0
 30 63  1  0  0  0  0
 30 64  1  0  0  0  0
 31 65  1  0  0  0  0
  4 66  1  0  0  0  0
 32 67  1  0  0  0  0
 32 68  1  0  0  0  0
 33 69  1  0  0  0  0
 33 70  1  0  0  0  0
 33 71  1  0  0  0  0
  1 72  1  0  0  0  0
M  CHG  1   1   1
M  END
