 xtb: 6.6.1 (8d0f1dd)
          06052419593D

 25 26  0     0  0            999 V2000
    3.2044    0.9678    0.0651 C   0  0  0  0  0  0  0  0  0  0  0  0
    2.3032   -0.0269    0.1022 N   0  0  0  0  0  0  0  0  0  0  0  0
    2.5465   -1.3688    0.1549 C   0  0  0  0  0  0  0  0  0  0  0  0
    1.3556   -2.0476    0.0984 N   0  0  0  0  0  0  0  0  0  0  0  0
    0.3528   -1.1455    0.0152 C   0  0  0  0  0  0  0  0  0  0  0  0
    0.9180    0.1428    0.0308 C   0  0  0  0  0  0  0  0  0  0  0  0
    0.0945    1.2535    0.0484 C   0  0  0  0  0  0  0  0  0  0  0  0
    2.7405    2.2215   -0.1466 O   0  0  0  0  0  0  0  0  0  0  0  0
   -1.2506    1.0264   -0.0527 N   0  0  0  0  0  0  0  0  0  0  0  0
   -2.1778    2.1400   -0.0898 C   0  0  0  0  0  0  0  0  0  0  0  0
   -1.8470   -0.2273   -0.0859 C   0  0  0  0  0  0  0  0  0  0  0  0
   -3.0430   -0.3633   -0.1443 O   0  0  0  0  0  0  0  0  0  0  0  0
   -0.9877   -1.3418   -0.0492 N   0  0  0  0  0  0  0  0  0  0  0  0
   -1.5643   -2.6693   -0.0269 C   0  0  0  0  0  0  0  0  0  0  0  0
    4.2480    0.7549    0.2264 H   0  0  0  0  0  0  0  0  0  0  0  0
    0.4485    2.2625    0.1290 H   0  0  0  0  0  0  0  0  0  0  0  0
    3.4649    2.8569   -0.1981 H   0  0  0  0  0  0  0  0  0  0  0  0
    3.5105   -1.8212    0.2205 H   0  0  0  0  0  0  0  0  0  0  0  0
   -1.6280    3.0748   -0.1528 H   0  0  0  0  0  0  0  0  0  0  0  0
   -2.8351    2.0359   -0.9548 H   0  0  0  0  0  0  0  0  0  0  0  0
   -2.8043    2.1367    0.8025 H   0  0  0  0  0  0  0  0  0  0  0  0
   -1.3137   -3.1792    0.9044 H   0  0  0  0  0  0  0  0  0  0  0  0
   -1.2113   -3.2537   -0.8781 H   0  0  0  0  0  0  0  0  0  0  0  0
   -2.6462   -2.5582   -0.0935 H   0  0  0  0  0  0  0  0  0  0  0  0
    1.2821   -3.0524    0.1063 H   0  0  0  0  0  0  0  0  0  0  0  0
  1  2  4  0  0  0  0
  2  3  1  0  0  0  0
  3  4  1  0  0  0  0
  4  5  4  0  0  0  0
  2  6  1  0  0  0  0
  5  6  4  0  0  0  0
  6  7  4  0  0  0  0
  1  8  1  0  0  0  0
  7  9  1  0  0  0  0
  9 10  1  0  0  0  0
  9 11  1  0  0  0  0
 11 12  2  0  0  0  0
  5 13  1  0  0  0  0
 11 13  1  0  0  0  0
 13 14  1  0  0  0  0
  1 15  1  0  0  0  0
  7 16  1  0  0  0  0
  8 17  1  0  0  0  0
  3 18  1  0  0  0  0
 10 19  1  0  0  0  0
 10 20  1  0  0  0  0
 10 21  1  0  0  0  0
 14 22  1  0  0  0  0
 14 23  1  0  0  0  0
 14 24  1  0  0  0  0
  4 25  1  0  0  0  0
M  CHG  1   1   1
M  END
