 xtb: 6.6.1 (8d0f1dd)
          04062411113D

 72 72  0     0  0            999 V2000
   -0.4971    1.5053    4.5405 N   0  0  0  0  0  0  0  0  0  0  0  0
   -0.2356    0.9277    3.4968 C   0  0  0  0  0  0  0  0  0  0  0  0
   -3.2816    1.7509   -0.4444 C   0  0  0  0  0  0  0  0  0  0  0  0
   -3.6993    0.4614   -0.0722 C   0  0  0  0  0  0  0  0  0  0  0  0
   -4.3030   -0.4199   -1.0160 C   0  0  0  0  0  0  0  0  0  0  0  0
   -4.6670   -1.7049   -0.6923 C   0  0  0  0  0  0  0  0  0  0  0  0
   -5.2626   -2.5868   -1.5273 O   0  0  0  0  0  0  0  0  0  0  0  0
   -5.6620   -2.1598   -2.8072 C   0  0  0  0  0  0  0  0  0  0  0  0
   -4.4178   -2.2084    0.6186 C   0  0  0  0  0  0  0  0  0  0  0  0
   -4.7797   -3.4860    0.8280 O   0  0  0  0  0  0  0  0  0  0  0  0
   -4.6158   -4.0505    2.1079 C   0  0  0  0  0  0  0  0  0  0  0  0
   -3.8404   -1.3555    1.5548 C   0  0  0  0  0  0  0  0  0  0  0  0
   -3.5014   -0.0611    1.2295 C   0  0  0  0  0  0  0  0  0  0  0  0
   -3.0645    2.0731   -1.8898 C   0  0  0  0  0  0  0  0  0  0  0  0
   -1.9843    1.1793   -2.5796 C   0  0  0  0  0  0  0  0  0  0  0  0
   -0.6391    1.3823   -2.0140 C   0  0  0  0  0  0  0  0  0  0  0  0
   -0.0055    0.5293   -1.2186 N   0  0  0  0  0  0  0  0  0  0  0  0
    1.3434    0.7953   -0.7788 C   0  0  0  0  0  0  0  0  0  0  0  0
    2.3809    0.1012   -1.6843 C   0  0  0  0  0  0  0  0  0  0  0  0
    3.7635    0.2585   -1.1169 C   0  0  0  0  0  0  0  0  0  0  0  0
    4.4783    1.4299   -1.3042 C   0  0  0  0  0  0  0  0  0  0  0  0
    5.7438    1.5837   -0.7590 C   0  0  0  0  0  0  0  0  0  0  0  0
    6.3222    0.5653   -0.0155 C   0  0  0  0  0  0  0  0  0  0  0  0
    7.5405    0.6049    0.5587 O   0  0  0  0  0  0  0  0  0  0  0  0
    8.3332    1.7596    0.4070 C   0  0  0  0  0  0  0  0  0  0  0  0
    5.5998   -0.6432    0.1759 C   0  0  0  0  0  0  0  0  0  0  0  0
    6.2402   -1.5885    0.8962 O   0  0  0  0  0  0  0  0  0  0  0  0
    5.6285   -2.8416    1.0841 C   0  0  0  0  0  0  0  0  0  0  0  0
    4.3324   -0.7701   -0.3696 C   0  0  0  0  0  0  0  0  0  0  0  0
   -0.5540   -0.7653   -0.8903 C   0  0  0  0  0  0  0  0  0  0  0  0
   -3.0157    2.8785    0.5180 C   0  0  0  0  0  0  0  0  0  0  0  0
   -4.0259    2.9840    1.6680 C   0  0  0  0  0  0  0  0  0  0  0  0
   -1.5723    2.8749    1.0511 C   0  0  0  0  0  0  0  0  0  0  0  0
   -4.5455   -0.0435   -1.9948 H   0  0  0  0  0  0  0  0  0  0  0  0
   -6.3565   -1.3160   -2.7504 H   0  0  0  0  0  0  0  0  0  0  0  0
   -6.1694   -3.0127   -3.2538 H   0  0  0  0  0  0  0  0  0  0  0  0
   -4.8026   -1.8865   -3.4285 H   0  0  0  0  0  0  0  0  0  0  0  0
   -5.2006   -3.5144    2.8615 H   0  0  0  0  0  0  0  0  0  0  0  0
   -4.9831   -5.0719    2.0263 H   0  0  0  0  0  0  0  0  0  0  0  0
   -3.5628   -4.0680    2.4076 H   0  0  0  0  0  0  0  0  0  0  0  0
   -3.6535   -1.7065    2.5573 H   0  0  0  0  0  0  0  0  0  0  0  0
   -3.0275    0.5442    1.9809 H   0  0  0  0  0  0  0  0  0  0  0  0
   -3.9898    1.9468   -2.4580 H   0  0  0  0  0  0  0  0  0  0  0  0
   -2.7594    3.1145   -1.9978 H   0  0  0  0  0  0  0  0  0  0  0  0
   -2.2895    0.1374   -2.5157 H   0  0  0  0  0  0  0  0  0  0  0  0
   -1.9631    1.4797   -3.6312 H   0  0  0  0  0  0  0  0  0  0  0  0
   -0.3638   -0.1252    3.3302 H   0  0  0  0  0  0  0  0  0  0  0  0
   -0.1367    2.3152   -2.2197 H   0  0  0  0  0  0  0  0  0  0  0  0
    1.4577    0.4360    0.2474 H   0  0  0  0  0  0  0  0  0  0  0  0
    1.5259    1.8715   -0.7833 H   0  0  0  0  0  0  0  0  0  0  0  0
    2.3292    0.5451   -2.6800 H   0  0  0  0  0  0  0  0  0  0  0  0
    2.1351   -0.9582   -1.7680 H   0  0  0  0  0  0  0  0  0  0  0  0
    4.0571    2.2325   -1.8900 H   0  0  0  0  0  0  0  0  0  0  0  0
    6.2778    2.5045   -0.9270 H   0  0  0  0  0  0  0  0  0  0  0  0
    7.8498    2.6376    0.8468 H   0  0  0  0  0  0  0  0  0  0  0  0
    8.5600    1.9553   -0.6453 H   0  0  0  0  0  0  0  0  0  0  0  0
    9.2576    1.5508    0.9423 H   0  0  0  0  0  0  0  0  0  0  0  0
    6.3445   -3.4341    1.6501 H   0  0  0  0  0  0  0  0  0  0  0  0
    4.6998   -2.7543    1.6575 H   0  0  0  0  0  0  0  0  0  0  0  0
    5.4246   -3.3363    0.1293 H   0  0  0  0  0  0  0  0  0  0  0  0
    3.7778   -1.6850   -0.2307 H   0  0  0  0  0  0  0  0  0  0  0  0
   -0.6963   -1.3758   -1.7844 H   0  0  0  0  0  0  0  0  0  0  0  0
   -1.5150   -0.6551   -0.3860 H   0  0  0  0  0  0  0  0  0  0  0  0
    0.1297   -1.2853   -0.2241 H   0  0  0  0  0  0  0  0  0  0  0  0
   -3.1199    3.8003   -0.0679 H   0  0  0  0  0  0  0  0  0  0  0  0
   -3.7363    2.3911    2.5303 H   0  0  0  0  0  0  0  0  0  0  0  0
   -5.0106    2.6597    1.3431 H   0  0  0  0  0  0  0  0  0  0  0  0
   -4.0984    4.0197    1.9924 H   0  0  0  0  0  0  0  0  0  0  0  0
   -1.3666    1.9972    1.6616 H   0  0  0  0  0  0  0  0  0  0  0  0
   -0.8654    2.8928    0.2276 H   0  0  0  0  0  0  0  0  0  0  0  0
   -1.4131    3.7604    1.6618 H   0  0  0  0  0  0  0  0  0  0  0  0
   -0.3772    2.4972    4.6995 H   0  0  0  0  0  0  0  0  0  0  0  0
  1  2  2  0  0  0  0
  3  4  4  0  0  0  0
  4  5  4  0  0  0  0
  5  6  4  0  0  0  0
  6  7  1  0  0  0  0
  7  8  1  0  0  0  0
  6  9  1  0  0  0  0
  9 10  1  0  0  0  0
 10 11  1  0  0  0  0
  9 12  4  0  0  0  0
  4 13  4  0  0  0  0
 12 13  4  0  0  0  0
  3 14  1  0  0  0  0
 14 15  1  0  0  0  0
 15 16  1  0  0  0  0
 16 17  4  0  0  0  0
 17 18  1  0  0  0  0
 18 19  1  0  0  0  0
 19 20  1  0  0  0  0
 20 21  4  0  0  0  0
 21 22  4  0  0  0  0
 22 23  4  0  0  0  0
 23 24  1  0  0  0  0
 24 25  1  0  0  0  0
 23 26  4  0  0  0  0
 26 27  1  0  0  0  0
 27 28  1  0  0  0  0
 20 29  4  0  0  0  0
 26 29  4  0  0  0  0
 17 30  1  0  0  0  0
  3 31  1  0  0  0  0
 31 32  1  0  0  0  0
 31 33  1  0  0  0  0
  5 34  1  0  0  0  0
  8 35  1  0  0  0  0
  8 36  1  0  0  0  0
  8 37  1  0  0  0  0
 11 38  1  0  0  0  0
 11 39  1  0  0  0  0
 11 40  1  0  0  0  0
 12 41  1  0  0  0  0
 13 42  1  0  0  0  0
 14 43  1  0  0  0  0
 14 44  1  0  0  0  0
 15 45  1  0  0  0  0
 15 46  1  0  0  0  0
  2 47  1  0  0  0  0
 16 48  1  0  0  0  0
 18 49  1  0  0  0  0
 18 50  1  0  0  0  0
 19 51  1  0  0  0  0
 19 52  1  0  0  0  0
 21 53  1  0  0  0  0
 22 54  1  0  0  0  0
 25 55  1  0  0  0  0
 25 56  1  0  0  0  0
 25 57  1  0  0  0  0
 28 58  1  0  0  0  0
 28 59  1  0  0  0  0
 28 60  1  0  0  0  0
 29 61  1  0  0  0  0
 30 62  1  0  0  0  0
 30 63  1  0  0  0  0
 30 64  1  0  0  0  0
 31 65  1  0  0  0  0
 32 66  1  0  0  0  0
 32 67  1  0  0  0  0
 32 68  1  0  0  0  0
 33 69  1  0  0  0  0
 33 70  1  0  0  0  0
 33 71  1  0  0  0  0
  1 72  1  0  0  0  0
M  CHG  1   1   1
M  END
