 xtb: 6.6.1 (8d0f1dd)
          06052420003D

 25 25  0     0  0            999 V2000
    2.9467    1.0493    0.7186 C   0  0  0  0  0  0  0  0  0  0  0  0
    2.2742    0.0049   -0.0507 N   0  0  0  0  0  0  0  0  0  0  0  0
    2.9414   -0.8786   -0.6611 C   0  0  0  0  0  0  0  0  0  0  0  0
    3.4673   -1.8534   -1.0729 N   0  0  0  0  0  0  0  0  0  0  0  0
    0.1952   -1.2287    0.1673 C   0  0  0  0  0  0  0  0  0  0  0  0
    0.8471   -0.0523   -0.0352 C   0  0  0  0  0  0  0  0  0  0  0  0
    0.1020    1.1880   -0.2497 C   0  0  0  0  0  0  0  0  0  0  0  0
    0.6138    2.2627   -0.4746 O   0  0  0  0  0  0  0  0  0  0  0  0
   -1.2704    1.0204   -0.1747 N   0  0  0  0  0  0  0  0  0  0  0  0
   -2.1160    2.1917   -0.3514 C   0  0  0  0  0  0  0  0  0  0  0  0
   -1.9469   -0.1659    0.0332 C   0  0  0  0  0  0  0  0  0  0  0  0
   -3.1448   -0.2277    0.0676 O   0  0  0  0  0  0  0  0  0  0  0  0
   -1.1433   -1.3022    0.2077 N   0  0  0  0  0  0  0  0  0  0  0  0
   -1.8024   -2.5740    0.4267 C   0  0  0  0  0  0  0  0  0  0  0  0
    2.7023    0.9297    1.7733 H   0  0  0  0  0  0  0  0  0  0  0  0
    4.0219    0.9780    0.5805 H   0  0  0  0  0  0  0  0  0  0  0  0
    2.5919    2.0224    0.3744 H   0  0  0  0  0  0  0  0  0  0  0  0
    4.0594   -2.1563   -1.8265 H   0  0  0  0  0  0  0  0  0  0  0  0
   -1.4751    3.0628   -0.4613 H   0  0  0  0  0  0  0  0  0  0  0  0
   -2.7397    2.0680   -1.2364 H   0  0  0  0  0  0  0  0  0  0  0  0
   -2.7679    2.3029    0.5145 H   0  0  0  0  0  0  0  0  0  0  0  0
   -1.4377   -3.0349    1.3440 H   0  0  0  0  0  0  0  0  0  0  0  0
   -1.6220   -3.2446   -0.4137 H   0  0  0  0  0  0  0  0  0  0  0  0
   -2.8720   -2.3896    0.5133 H   0  0  0  0  0  0  0  0  0  0  0  0
    0.7356   -2.1544    0.3183 H   0  0  0  0  0  0  0  0  0  0  0  0
  1  2  1  0  0  0  0
  2  3  4  0  0  0  0
  3  4  2  0  0  0  0
  2  6  1  0  0  0  0
  5  6  2  0  0  0  0
  6  7  1  0  0  0  0
  7  8  2  0  0  0  0
  7  9  1  0  0  0  0
  9 10  1  0  0  0  0
  9 11  1  0  0  0  0
 11 12  2  0  0  0  0
  5 13  4  0  0  0  0
 11 13  1  0  0  0  0
 13 14  1  0  0  0  0
  1 15  1  0  0  0  0
  1 16  1  0  0  0  0
  1 17  1  0  0  0  0
  4 18  1  0  0  0  0
 10 19  1  0  0  0  0
 10 20  1  0  0  0  0
 10 21  1  0  0  0  0
 14 22  1  0  0  0  0
 14 23  1  0  0  0  0
 14 24  1  0  0  0  0
  5 25  1  0  0  0  0
M  CHG  1   1   1
M  END
