 xtb: 6.6.1 (8d0f1dd)
          04062411123D

 72 71  0     0  0            999 V2000
   -1.8074    2.8860    1.9716 N   0  0  0  0  0  0  0  0  0  0  0  0
   -1.9364    2.5934    0.7487 C   0  0  0  0  0  0  0  0  0  0  0  0
   -3.1570    2.8577    0.0024 C   0  0  0  0  0  0  0  0  0  0  0  0
   -4.7626    0.2797    1.3321 C   0  0  0  0  0  0  0  0  0  0  0  0
   -5.3472   -0.1398    0.1519 C   0  0  0  0  0  0  0  0  0  0  0  0
   -5.3040   -1.4850   -0.1935 C   0  0  0  0  0  0  0  0  0  0  0  0
   -5.8344   -2.0218   -1.3108 O   0  0  0  0  0  0  0  0  0  0  0  0
   -6.5527   -1.1979   -2.1996 C   0  0  0  0  0  0  0  0  0  0  0  0
   -4.6581   -2.4059    0.6779 C   0  0  0  0  0  0  0  0  0  0  0  0
   -4.6792   -3.6909    0.2682 O   0  0  0  0  0  0  0  0  0  0  0  0
   -4.1646   -4.6908    1.1174 C   0  0  0  0  0  0  0  0  0  0  0  0
   -4.0724   -1.9435    1.8474 C   0  0  0  0  0  0  0  0  0  0  0  0
   -4.1220   -0.5935    2.1782 C   0  0  0  0  0  0  0  0  0  0  0  0
   -3.2152    2.5199   -1.2895 C   0  0  0  0  0  0  0  0  0  0  0  0
   -0.6077    0.8582   -2.9575 C   0  0  0  0  0  0  0  0  0  0  0  0
    0.4091    0.9813   -2.0952 C   0  0  0  0  0  0  0  0  0  0  0  0
    0.7353    0.1267   -1.0827 N   0  0  0  0  0  0  0  0  0  0  0  0
    2.0625    0.1924   -0.5289 C   0  0  0  0  0  0  0  0  0  0  0  0
    3.1012   -0.5545   -1.3953 C   0  0  0  0  0  0  0  0  0  0  0  0
    4.4909   -0.3106   -0.8876 C   0  0  0  0  0  0  0  0  0  0  0  0
    5.1151    0.9080   -1.1199 C   0  0  0  0  0  0  0  0  0  0  0  0
    6.3886    1.1594   -0.6387 C   0  0  0  0  0  0  0  0  0  0  0  0
    7.0737    0.1924    0.0857 C   0  0  0  0  0  0  0  0  0  0  0  0
    8.3120    0.3246    0.5945 O   0  0  0  0  0  0  0  0  0  0  0  0
    9.0210    1.5227    0.3768 C   0  0  0  0  0  0  0  0  0  0  0  0
    6.4459   -1.0621    0.3256 C   0  0  0  0  0  0  0  0  0  0  0  0
    7.1829   -1.9468    1.0244 O   0  0  0  0  0  0  0  0  0  0  0  0
    6.6683   -3.2345    1.2683 C   0  0  0  0  0  0  0  0  0  0  0  0
    5.1652   -1.2858   -0.1590 C   0  0  0  0  0  0  0  0  0  0  0  0
   -0.0027   -1.0992   -0.9127 C   0  0  0  0  0  0  0  0  0  0  0  0
   -4.3267    3.5357    0.6834 C   0  0  0  0  0  0  0  0  0  0  0  0
   -4.7257    2.8599    1.9496 C   0  0  0  0  0  0  0  0  0  0  0  0
   -3.9550    4.9977    1.0120 C   0  0  0  0  0  0  0  0  0  0  0  0
   -5.8396    0.5731   -0.4891 H   0  0  0  0  0  0  0  0  0  0  0  0
   -7.4124   -0.7317   -1.7083 H   0  0  0  0  0  0  0  0  0  0  0  0
   -6.9043   -1.8603   -2.9890 H   0  0  0  0  0  0  0  0  0  0  0  0
   -5.9131   -0.4227   -2.6349 H   0  0  0  0  0  0  0  0  0  0  0  0
   -4.6780   -4.6969    2.0839 H   0  0  0  0  0  0  0  0  0  0  0  0
   -4.3500   -5.6337    0.6046 H   0  0  0  0  0  0  0  0  0  0  0  0
   -3.0874   -4.5705    1.2758 H   0  0  0  0  0  0  0  0  0  0  0  0
   -3.5772   -2.6269    2.5182 H   0  0  0  0  0  0  0  0  0  0  0  0
   -3.6683   -0.2482    3.0930 H   0  0  0  0  0  0  0  0  0  0  0  0
   -4.0890    2.7115   -1.8889 H   0  0  0  0  0  0  0  0  0  0  0  0
   -2.3827    2.0519   -1.7907 H   0  0  0  0  0  0  0  0  0  0  0  0
   -1.2564    0.0010   -2.9835 H   0  0  0  0  0  0  0  0  0  0  0  0
   -0.7811    1.6211   -3.6936 H   0  0  0  0  0  0  0  0  0  0  0  0
   -1.1430    2.1262    0.1484 H   0  0  0  0  0  0  0  0  0  0  0  0
    1.0460    1.8557   -2.1454 H   0  0  0  0  0  0  0  0  0  0  0  0
    2.0512   -0.2364    0.4770 H   0  0  0  0  0  0  0  0  0  0  0  0
    2.3590    1.2416   -0.4482 H   0  0  0  0  0  0  0  0  0  0  0  0
    3.0132   -0.1900   -2.4216 H   0  0  0  0  0  0  0  0  0  0  0  0
    2.8763   -1.6215   -1.3884 H   0  0  0  0  0  0  0  0  0  0  0  0
    4.6102    1.6705   -1.6934 H   0  0  0  0  0  0  0  0  0  0  0  0
    6.8462    2.1146   -0.8381 H   0  0  0  0  0  0  0  0  0  0  0  0
    8.5139    2.3769    0.8360 H   0  0  0  0  0  0  0  0  0  0  0  0
    9.1657    1.7138   -0.6908 H   0  0  0  0  0  0  0  0  0  0  0  0
    9.9895    1.3800    0.8525 H   0  0  0  0  0  0  0  0  0  0  0  0
    7.4470   -3.7614    1.8165 H   0  0  0  0  0  0  0  0  0  0  0  0
    5.7604   -3.1952    1.8783 H   0  0  0  0  0  0  0  0  0  0  0  0
    6.4599   -3.7655    0.3345 H   0  0  0  0  0  0  0  0  0  0  0  0
    4.6821   -2.2342    0.0163 H   0  0  0  0  0  0  0  0  0  0  0  0
    0.1741   -1.8043   -1.7302 H   0  0  0  0  0  0  0  0  0  0  0  0
   -1.0698   -0.8810   -0.8696 H   0  0  0  0  0  0  0  0  0  0  0  0
    0.2924   -1.5669    0.0233 H   0  0  0  0  0  0  0  0  0  0  0  0
   -5.1685    3.5486   -0.0171 H   0  0  0  0  0  0  0  0  0  0  0  0
   -3.9585    2.8184    2.7084 H   0  0  0  0  0  0  0  0  0  0  0  0
   -4.8031    1.4051    1.6126 H   0  0  0  0  0  0  0  0  0  0  0  0
   -5.7287    3.0467    2.3035 H   0  0  0  0  0  0  0  0  0  0  0  0
   -3.1158    5.0190    1.7014 H   0  0  0  0  0  0  0  0  0  0  0  0
   -3.6812    5.5186    0.0980 H   0  0  0  0  0  0  0  0  0  0  0  0
   -4.8016    5.5067    1.4656 H   0  0  0  0  0  0  0  0  0  0  0  0
   -0.9110    2.6774    2.3987 H   0  0  0  0  0  0  0  0  0  0  0  0
  1  2  2  0  0  0  0
  2  3  1  0  0  0  0
  4  5  4  0  0  0  0
  5  6  4  0  0  0  0
  6  7  1  0  0  0  0
  7  8  1  0  0  0  0
  6  9  4  0  0  0  0
  9 10  1  0  0  0  0
 10 11  1  0  0  0  0
  9 12  4  0  0  0  0
  4 13  4  0  0  0  0
 12 13  4  0  0  0  0
  3 14  2  0  0  0  0
 15 16  2  0  0  0  0
 16 17  1  0  0  0  0
 17 18  1  0  0  0  0
 18 19  1  0  0  0  0
 19 20  1  0  0  0  0
 20 21  4  0  0  0  0
 21 22  4  0  0  0  0
 22 23  4  0  0  0  0
 23 24  1  0  0  0  0
 24 25  1  0  0  0  0
 23 26  4  0  0  0  0
 26 27  1  0  0  0  0
 27 28  1  0  0  0  0
 20 29  4  0  0  0  0
 26 29  4  0  0  0  0
 17 30  1  0  0  0  0
  3 31  1  0  0  0  0
 31 32  1  0  0  0  0
 31 33  1  0  0  0  0
  5 34  1  0  0  0  0
  8 35  1  0  0  0  0
  8 36  1  0  0  0  0
  8 37  1  0  0  0  0
 11 38  1  0  0  0  0
 11 39  1  0  0  0  0
 11 40  1  0  0  0  0
 12 41  1  0  0  0  0
 13 42  1  0  0  0  0
 14 43  1  0  0  0  0
 14 44  1  0  0  0  0
 15 45  1  0  0  0  0
 15 46  1  0  0  0  0
  2 47  1  0  0  0  0
 16 48  1  0  0  0  0
 18 49  1  0  0  0  0
 18 50  1  0  0  0  0
 19 51  1  0  0  0  0
 19 52  1  0  0  0  0
 21 53  1  0  0  0  0
 22 54  1  0  0  0  0
 25 55  1  0  0  0  0
 25 56  1  0  0  0  0
 25 57  1  0  0  0  0
 28 58  1  0  0  0  0
 28 59  1  0  0  0  0
 28 60  1  0  0  0  0
 29 61  1  0  0  0  0
 30 62  1  0  0  0  0
 30 63  1  0  0  0  0
 30 64  1  0  0  0  0
 31 65  1  0  0  0  0
 32 66  1  0  0  0  0
  4 67  1  0  0  0  0
 32 68  1  0  0  0  0
 33 69  1  0  0  0  0
 33 70  1  0  0  0  0
 33 71  1  0  0  0  0
  1 72  1  0  0  0  0
M  CHG  1   1   1
M  END
