          71
 
N             -1.69378444        2.76795104        2.45666971
C             -1.69626345        2.11301915        1.39330273
C             -2.86644000        2.02887935        0.45156851
C             -3.39903869        0.60551764        0.42972696
C             -4.36767209        0.24295277       -0.50843289
C             -4.90453677       -1.03408001       -0.53652762
O             -5.84932661       -1.46405601       -1.39276021
C             -6.44859503       -0.55052093       -2.28228619
C             -4.44207748       -2.00950079        0.39388480
O             -4.98177962       -3.22981492        0.27009830
C             -4.42078856       -4.29149349        0.99406358
C             -3.49485493       -1.63201786        1.33971892
C             -2.98633120       -0.34225108        1.35569629
C             -2.32391968        2.42479891       -0.94775920
C             -1.48715042        1.34315686       -1.65595259
C             -0.13539444        1.15196428       -1.07050264
N              0.41603071       -0.01697799       -0.75109888
C              1.80822650        0.00799513       -0.30427762
C              2.76116361       -0.29843582       -1.47004547
C              4.19010190       -0.21120969       -1.00981863
C              4.89415038        0.97926841       -1.11337605
C              6.20483965        1.07091581       -0.67326066
C              6.84143079       -0.02868314       -0.11269369
O              8.10372249       -0.05408138        0.34495743
C              8.90351402        1.10146826        0.23314798
C              6.12572438       -1.25534934        0.00162671
O              6.81591142       -2.27080988        0.55001567
C              6.20642366       -3.53352201        0.68413341
C              4.81423675       -1.32073233       -0.44634127
C             -0.14928868       -1.21049362       -0.83141045
C             -4.04080176        2.97339492        0.85126081
C             -4.66371908        2.55983229        2.18235523
C             -3.64003037        4.44446845        0.90432148
H             -4.70985041        0.97173167       -1.22462022
H             -6.91554337        0.28088336       -1.74576121
H             -7.21519144       -1.11618853       -2.80825089
H             -5.72712330       -0.16122450       -3.00758747
H             -4.57541609       -4.18594716        2.07151795
H             -4.90075571       -5.19768470        0.63180885
H             -3.32521212       -4.32367747        0.78745985
H             -3.16910933       -2.32977779        2.09210493
H             -2.27320747       -0.07876070        2.12073179
H             -3.17027616        2.66643747       -1.59031239
H             -1.72144829        3.32832999       -0.84601426
H             -2.04478849        0.40943098       -1.67611129
H             -1.36063441        1.67659558       -2.69378232
H             -0.82082435        1.55978986        1.01250984
H              0.49882783        2.02115266       -0.99943429
H              1.94177656       -0.73537764        0.48418526
H              2.04346471        0.99212234        0.10626289
H              2.58677663        0.42174149       -2.27159073
H              2.54793154       -1.29731756       -1.85364648
H              4.42716733        1.84751736       -1.55264122
H              6.72788503        2.00766091       -0.77552767
H              8.49424760        1.92947882        0.81994588
H              9.01433457        1.41148726       -0.80992798
H              9.87671593        0.82292827        0.63279708
H              6.96093481       -4.17517041        1.13509574
H              5.33134245       -3.48886923        1.33996553
H              5.91643679       -3.94386555       -0.28787071
H              4.26780185       -2.24790060       -0.37306963
H             -1.15803839       -1.33559501       -1.16702135
H              0.39636543       -2.07288763       -0.50675944
H             -4.80526568        2.86034181        0.07390773
H             -3.93884067        2.67036556        2.98287480
H             -5.00452701        1.52757464        2.15487147
H             -5.51730254        3.19673011        2.39907283
H             -2.87139781        4.59873165        1.65544266
H             -3.27997802        4.80245986       -0.05637939
H             -4.50700333        5.03997974        1.17851644
H             -0.84404295        2.78396094        3.01117206
