 xtb: 6.6.1 (8d0f1dd)
          06052420003D

 25 26  0     0  0            999 V2000
    3.7020    0.7515    0.0220 C   0  0  0  0  0  0  0  0  0  0  0  0
    2.5733   -0.1433    0.0037 N   0  0  0  0  0  0  0  0  0  0  0  0
    2.6139   -1.4705   -0.0003 C   0  0  0  0  0  0  0  0  0  0  0  0
    1.3542   -1.9648   -0.0016 N   0  0  0  0  0  0  0  0  0  0  0  0
    0.4926   -0.9066    0.0021 C   0  0  0  0  0  0  0  0  0  0  0  0
    1.2594    0.2435    0.0060 C   0  0  0  0  0  0  0  0  0  0  0  0
    0.6185    1.5758   -0.0148 C   0  0  0  0  0  0  0  0  0  0  0  0
    1.2203    2.6176   -0.0408 O   0  0  0  0  0  0  0  0  0  0  0  0
   -0.7497    1.4659   -0.0063 N   0  0  0  0  0  0  0  0  0  0  0  0
   -3.4446    1.6026    0.0042 C   0  0  0  0  0  0  0  0  0  0  0  0
   -1.4255    0.3740    0.0015 C   0  0  0  0  0  0  0  0  0  0  0  0
   -2.7345    0.3591    0.0101 O   0  0  0  0  0  0  0  0  0  0  0  0
   -0.8624   -0.9004    0.0002 N   0  0  0  0  0  0  0  0  0  0  0  0
   -1.6320   -2.1287   -0.0089 C   0  0  0  0  0  0  0  0  0  0  0  0
    4.1898    0.7228    0.9975 H   0  0  0  0  0  0  0  0  0  0  0  0
    4.4238    0.4636   -0.7420 H   0  0  0  0  0  0  0  0  0  0  0  0
    3.3457    1.7662   -0.1640 H   0  0  0  0  0  0  0  0  0  0  0  0
    3.5055   -2.0646   -0.0038 H   0  0  0  0  0  0  0  0  0  0  0  0
   -2.7510    2.4448    0.0077 H   0  0  0  0  0  0  0  0  0  0  0  0
   -4.0661    1.6281   -0.8905 H   0  0  0  0  0  0  0  0  0  0  0  0
   -4.0796    1.6302    0.8897 H   0  0  0  0  0  0  0  0  0  0  0  0
   -1.4122   -2.7182    0.8825 H   0  0  0  0  0  0  0  0  0  0  0  0
   -1.4040   -2.7096   -0.9039 H   0  0  0  0  0  0  0  0  0  0  0  0
   -2.6884   -1.8758   -0.0124 H   0  0  0  0  0  0  0  0  0  0  0  0
    1.1114   -2.9450   -0.0070 H   0  0  0  0  0  0  0  0  0  0  0  0
  1  2  1  0  0  0  0
  2  3  4  0  0  0  0
  3  4  4  0  0  0  0
  4  5  1  0  0  0  0
  2  6  1  0  0  0  0
  5  6  4  0  0  0  0
  6  7  1  0  0  0  0
  7  8  2  0  0  0  0
  7  9  1  0  0  0  0
  9 11  2  0  0  0  0
 10 12  1  0  0  0  0
 11 12  1  0  0  0  0
  5 13  1  0  0  0  0
 11 13  1  0  0  0  0
 13 14  1  0  0  0  0
  1 15  1  0  0  0  0
  1 16  1  0  0  0  0
  1 17  1  0  0  0  0
  3 18  1  0  0  0  0
 10 19  1  0  0  0  0
 10 20  1  0  0  0  0
 10 21  1  0  0  0  0
 14 22  1  0  0  0  0
 14 23  1  0  0  0  0
 14 24  1  0  0  0  0
  4 25  1  0  0  0  0
M  CHG  1   1   1
M  END
