 xtb: 6.6.1 (8d0f1dd)
          04062411113D

 72 72  0     0  0            999 V2000
   -1.2989    1.4934    4.1944 N   0  0  0  0  0  0  0  0  0  0  0  0
   -1.5059    0.8677    3.2408 C   0  0  0  0  0  0  0  0  0  0  0  0
   -3.7372    1.7049    0.0783 C   0  0  0  0  0  0  0  0  0  0  0  0
   -4.1876    0.3719    0.0987 C   0  0  0  0  0  0  0  0  0  0  0  0
   -5.3900   -0.0413   -0.5370 C   0  0  0  0  0  0  0  0  0  0  0  0
   -5.8069   -1.3522   -0.5333 C   0  0  0  0  0  0  0  0  0  0  0  0
   -6.9189   -1.8218   -1.1350 O   0  0  0  0  0  0  0  0  0  0  0  0
   -7.7617   -0.9290   -1.8233 C   0  0  0  0  0  0  0  0  0  0  0  0
   -5.0345   -2.3455    0.1420 C   0  0  0  0  0  0  0  0  0  0  0  0
   -5.5249   -3.5900    0.1002 O   0  0  0  0  0  0  0  0  0  0  0  0
   -4.8256   -4.6331    0.7408 C   0  0  0  0  0  0  0  0  0  0  0  0
   -3.8601   -1.9499    0.7807 C   0  0  0  0  0  0  0  0  0  0  0  0
   -3.4420   -0.6414    0.7561 C   0  0  0  0  0  0  0  0  0  0  0  0
   -2.3259    2.0189    0.4379 C   0  0  0  0  0  0  0  0  0  0  0  0
   -1.3078    1.3205   -0.4844 C   0  0  0  0  0  0  0  0  0  0  0  0
    0.0394    1.1256    0.2171 C   0  0  0  0  0  0  0  0  0  0  0  0
    0.9039    0.1998   -0.4846 N   0  0  0  0  0  0  0  0  0  0  0  0
    2.3167    0.3503   -0.2087 C   0  0  0  0  0  0  0  0  0  0  0  0
    3.1887   -0.0488   -1.4126 C   0  0  0  0  0  0  0  0  0  0  0  0
    4.6375    0.0829   -1.0475 C   0  0  0  0  0  0  0  0  0  0  0  0
    5.3369    1.2549   -1.2983 C   0  0  0  0  0  0  0  0  0  0  0  0
    6.6617    1.3889   -0.9154 C   0  0  0  0  0  0  0  0  0  0  0  0
    7.3184    0.3524   -0.2647 C   0  0  0  0  0  0  0  0  0  0  0  0
    8.5965    0.3728    0.1551 O   0  0  0  0  0  0  0  0  0  0  0  0
    9.3816    1.5185   -0.0817 C   0  0  0  0  0  0  0  0  0  0  0  0
    6.6105   -0.8545   -0.0014 C   0  0  0  0  0  0  0  0  0  0  0  0
    7.3201   -1.8094    0.6306 O   0  0  0  0  0  0  0  0  0  0  0  0
    6.7130   -3.0474    0.9142 C   0  0  0  0  0  0  0  0  0  0  0  0
    5.2858   -0.9636   -0.3965 C   0  0  0  0  0  0  0  0  0  0  0  0
    0.4551   -1.1712   -0.4152 C   0  0  0  0  0  0  0  0  0  0  0  0
   -4.6304    2.8605   -0.2443 C   0  0  0  0  0  0  0  0  0  0  0  0
   -4.8323    3.7207    1.0137 C   0  0  0  0  0  0  0  0  0  0  0  0
   -4.0726    3.7062   -1.3932 C   0  0  0  0  0  0  0  0  0  0  0  0
   -5.9706    0.6833   -1.0809 H   0  0  0  0  0  0  0  0  0  0  0  0
   -8.1619   -0.1596   -1.1557 H   0  0  0  0  0  0  0  0  0  0  0  0
   -8.5801   -1.5362   -2.2046 H   0  0  0  0  0  0  0  0  0  0  0  0
   -7.2432   -0.4536   -2.6621 H   0  0  0  0  0  0  0  0  0  0  0  0
   -4.7438   -4.4563    1.8173 H   0  0  0  0  0  0  0  0  0  0  0  0
   -5.4148   -5.5314    0.5667 H   0  0  0  0  0  0  0  0  0  0  0  0
   -3.8271   -4.7658    0.3140 H   0  0  0  0  0  0  0  0  0  0  0  0
   -3.2675   -2.6764    1.3136 H   0  0  0  0  0  0  0  0  0  0  0  0
   -2.5552   -0.3826    1.3070 H   0  0  0  0  0  0  0  0  0  0  0  0
   -2.1531    3.0928    0.4168 H   0  0  0  0  0  0  0  0  0  0  0  0
   -2.1402    1.6859    1.4690 H   0  0  0  0  0  0  0  0  0  0  0  0
   -1.7094    0.3561   -0.7863 H   0  0  0  0  0  0  0  0  0  0  0  0
   -1.1641    1.9127   -1.3886 H   0  0  0  0  0  0  0  0  0  0  0  0
   -0.1416    0.7731    1.2473 H   0  0  0  0  0  0  0  0  0  0  0  0
    0.5458    2.0908    0.2826 H   0  0  0  0  0  0  0  0  0  0  0  0
    2.6161   -0.2522    0.6635 H   0  0  0  0  0  0  0  0  0  0  0  0
    2.5235    1.3966    0.0241 H   0  0  0  0  0  0  0  0  0  0  0  0
    2.9433    0.6006   -2.2525 H   0  0  0  0  0  0  0  0  0  0  0  0
    2.9759   -1.0778   -1.7024 H   0  0  0  0  0  0  0  0  0  0  0  0
    4.8485    2.0733   -1.8042 H   0  0  0  0  0  0  0  0  0  0  0  0
    7.1794    2.3097   -1.1291 H   0  0  0  0  0  0  0  0  0  0  0  0
    8.9705    2.3972    0.4249 H   0  0  0  0  0  0  0  0  0  0  0  0
    9.4759    1.7247   -1.1522 H   0  0  0  0  0  0  0  0  0  0  0  0
   10.3628    1.2905    0.3301 H   0  0  0  0  0  0  0  0  0  0  0  0
    7.4803   -3.6436    1.4043 H   0  0  0  0  0  0  0  0  0  0  0  0
    5.8596   -2.9305    1.5897 H   0  0  0  0  0  0  0  0  0  0  0  0
    6.3895   -3.5543    0.0000 H   0  0  0  0  0  0  0  0  0  0  0  0
    4.7415   -1.8755   -0.2062 H   0  0  0  0  0  0  0  0  0  0  0  0
   -0.5035   -1.2806   -0.9189 H   0  0  0  0  0  0  0  0  0  0  0  0
    0.3423   -1.5102    0.6250 H   0  0  0  0  0  0  0  0  0  0  0  0
    1.1705   -1.8176   -0.9154 H   0  0  0  0  0  0  0  0  0  0  0  0
   -5.6176    2.5021   -0.5394 H   0  0  0  0  0  0  0  0  0  0  0  0
   -3.8979    4.1621    1.3486 H   0  0  0  0  0  0  0  0  0  0  0  0
   -5.2382    3.1161    1.8213 H   0  0  0  0  0  0  0  0  0  0  0  0
   -5.5317    4.5237    0.7971 H   0  0  0  0  0  0  0  0  0  0  0  0
   -3.1510    4.2085   -1.1147 H   0  0  0  0  0  0  0  0  0  0  0  0
   -3.8796    3.0830   -2.2633 H   0  0  0  0  0  0  0  0  0  0  0  0
   -4.7975    4.4669   -1.6703 H   0  0  0  0  0  0  0  0  0  0  0  0
   -1.1318    2.0066    5.0315 H   0  0  0  0  0  0  0  0  0  0  0  0
  1  2  3  0  0  0  0
  3  4  4  0  0  0  0
  4  5  4  0  0  0  0
  5  6  4  0  0  0  0
  6  7  1  0  0  0  0
  7  8  1  0  0  0  0
  6  9  1  0  0  0  0
  9 10  1  0  0  0  0
 10 11  1  0  0  0  0
  9 12  4  0  0  0  0
  4 13  4  0  0  0  0
 12 13  4  0  0  0  0
  3 14  1  0  0  0  0
 14 15  1  0  0  0  0
 15 16  1  0  0  0  0
 16 17  1  0  0  0  0
 17 18  1  0  0  0  0
 18 19  1  0  0  0  0
 19 20  1  0  0  0  0
 20 21  4  0  0  0  0
 21 22  4  0  0  0  0
 22 23  4  0  0  0  0
 23 24  1  0  0  0  0
 24 25  1  0  0  0  0
 23 26  4  0  0  0  0
 26 27  1  0  0  0  0
 27 28  1  0  0  0  0
 20 29  4  0  0  0  0
 26 29  4  0  0  0  0
 17 30  1  0  0  0  0
  3 31  1  0  0  0  0
 31 32  1  0  0  0  0
 31 33  1  0  0  0  0
  5 34  1  0  0  0  0
  8 35  1  0  0  0  0
  8 36  1  0  0  0  0
  8 37  1  0  0  0  0
 11 38  1  0  0  0  0
 11 39  1  0  0  0  0
 11 40  1  0  0  0  0
 12 41  1  0  0  0  0
 13 42  1  0  0  0  0
 14 43  1  0  0  0  0
 14 44  1  0  0  0  0
 15 45  1  0  0  0  0
 15 46  1  0  0  0  0
 16 47  1  0  0  0  0
 16 48  1  0  0  0  0
 18 49  1  0  0  0  0
 18 50  1  0  0  0  0
 19 51  1  0  0  0  0
 19 52  1  0  0  0  0
 21 53  1  0  0  0  0
 22 54  1  0  0  0  0
 25 55  1  0  0  0  0
 25 56  1  0  0  0  0
 25 57  1  0  0  0  0
 28 58  1  0  0  0  0
 28 59  1  0  0  0  0
 28 60  1  0  0  0  0
 29 61  1  0  0  0  0
 30 62  1  0  0  0  0
 30 63  1  0  0  0  0
 30 64  1  0  0  0  0
 31 65  1  0  0  0  0
 32 66  1  0  0  0  0
 32 67  1  0  0  0  0
 32 68  1  0  0  0  0
 33 69  1  0  0  0  0
 33 70  1  0  0  0  0
 33 71  1  0  0  0  0
  1 72  1  0  0  0  0
M  CHG  1   1   1
M  END
