 xtb: 6.6.1 (8d0f1dd)
          04062411153D

 72 73  0     0  0            999 V2000
   -1.9081    2.8017    2.2416 N   0  0  0  0  0  0  0  0  0  0  0  0
   -1.8461    2.1275    1.1924 C   0  0  0  0  0  0  0  0  0  0  0  0
   -2.9923    1.9168    0.2417 C   0  0  0  0  0  0  0  0  0  0  0  0
   -3.4684    0.4735    0.3247 C   0  0  0  0  0  0  0  0  0  0  0  0
   -4.4231    0.0074   -0.5819 C   0  0  0  0  0  0  0  0  0  0  0  0
   -4.8984   -1.2921   -0.5292 C   0  0  0  0  0  0  0  0  0  0  0  0
   -5.8275   -1.8178   -1.3533 O   0  0  0  0  0  0  0  0  0  0  0  0
   -6.4624   -0.9893   -2.2986 C   0  0  0  0  0  0  0  0  0  0  0  0
   -4.3943   -2.1824    0.4576 C   0  0  0  0  0  0  0  0  0  0  0  0
   -4.9056   -3.4292    0.4275 O   0  0  0  0  0  0  0  0  0  0  0  0
   -4.5151   -4.3545    1.4149 C   0  0  0  0  0  0  0  0  0  0  0  0
   -3.4464   -1.7144    1.3530 C   0  0  0  0  0  0  0  0  0  0  0  0
   -2.9933   -0.4021    1.2884 C   0  0  0  0  0  0  0  0  0  0  0  0
   -2.4336    2.1998   -1.1773 C   0  0  0  0  0  0  0  0  0  0  0  0
   -1.4903    1.1096   -1.7193 C   0  0  0  0  0  0  0  0  0  0  0  0
   -0.1521    1.1117   -1.0863 C   0  0  0  0  0  0  0  0  0  0  0  0
    0.5108    0.0335   -0.6848 N   0  0  0  0  0  0  0  0  0  0  0  0
    1.8913    0.1233   -0.2758 C   0  0  0  0  0  0  0  0  0  0  0  0
    2.8512   -0.3467   -1.3818 C   0  0  0  0  0  0  0  0  0  0  0  0
    4.2736   -0.1572   -0.9376 C   0  0  0  0  0  0  0  0  0  0  0  0
    4.9127    1.0543   -1.1487 C   0  0  0  0  0  0  0  0  0  0  0  0
    6.2095    1.2614   -0.7074 C   0  0  0  0  0  0  0  0  0  0  0  0
    6.8937    0.2581   -0.0364 C   0  0  0  0  0  0  0  0  0  0  0  0
    8.1483    0.3510    0.4415 O   0  0  0  0  0  0  0  0  0  0  0  0
    8.8732    1.5413    0.2326 C   0  0  0  0  0  0  0  0  0  0  0  0
    6.2478   -0.9902    0.1841 C   0  0  0  0  0  0  0  0  0  0  0  0
    6.9895   -1.9056    0.8387 O   0  0  0  0  0  0  0  0  0  0  0  0
    6.4527   -3.1814    1.0945 C   0  0  0  0  0  0  0  0  0  0  0  0
    4.9500   -1.1741   -0.2680 C   0  0  0  0  0  0  0  0  0  0  0  0
   -0.0813   -1.2832   -0.7183 C   0  0  0  0  0  0  0  0  0  0  0  0
   -4.2039    2.8525    0.5320 C   0  0  0  0  0  0  0  0  0  0  0  0
   -4.8510    2.5269    1.8762 C   0  0  0  0  0  0  0  0  0  0  0  0
   -3.8440    4.3347    0.4761 C   0  0  0  0  0  0  0  0  0  0  0  0
   -4.8128    0.6765   -1.3309 H   0  0  0  0  0  0  0  0  0  0  0  0
   -6.9709   -0.1483   -1.8177 H   0  0  0  0  0  0  0  0  0  0  0  0
   -7.1993   -1.6211   -2.7907 H   0  0  0  0  0  0  0  0  0  0  0  0
   -5.7552   -0.6131   -3.0449 H   0  0  0  0  0  0  0  0  0  0  0  0
   -4.7562   -3.9948    2.4195 H   0  0  0  0  0  0  0  0  0  0  0  0
   -5.0849   -5.2585    1.2091 H   0  0  0  0  0  0  0  0  0  0  0  0
   -3.4454   -4.5794    1.3536 H   0  0  0  0  0  0  0  0  0  0  0  0
   -3.0590   -2.3617    2.1230 H   0  0  0  0  0  0  0  0  0  0  0  0
   -2.2796   -0.0661    2.0248 H   0  0  0  0  0  0  0  0  0  0  0  0
   -3.2703    2.2930   -1.8688 H   0  0  0  0  0  0  0  0  0  0  0  0
   -1.9070    3.1547   -1.1666 H   0  0  0  0  0  0  0  0  0  0  0  0
   -1.9727    0.1371   -1.6386 H   0  0  0  0  0  0  0  0  0  0  0  0
   -1.3459    1.3231   -2.7866 H   0  0  0  0  0  0  0  0  0  0  0  0
   -0.9194    1.6436    0.8270 H   0  0  0  0  0  0  0  0  0  0  0  0
    0.3907    2.0458   -1.0747 H   0  0  0  0  0  0  0  0  0  0  0  0
    2.0413   -0.4922    0.6156 H   0  0  0  0  0  0  0  0  0  0  0  0
    2.1295    1.1558   -0.0198 H   0  0  0  0  0  0  0  0  0  0  0  0
    2.6618    0.2464   -2.2783 H   0  0  0  0  0  0  0  0  0  0  0  0
    2.6628   -1.3907   -1.6156 H   0  0  0  0  0  0  0  0  0  0  0  0
    4.4013    1.8468   -1.6738 H   0  0  0  0  0  0  0  0  0  0  0  0
    6.6806    2.2122   -0.8938 H   0  0  0  0  0  0  0  0  0  0  0  0
    8.3952    2.3929    0.7265 H   0  0  0  0  0  0  0  0  0  0  0  0
    8.9908    1.7554   -0.8338 H   0  0  0  0  0  0  0  0  0  0  0  0
    9.8517    1.3699    0.6768 H   0  0  0  0  0  0  0  0  0  0  0  0
    7.2340   -3.7251    1.6223 H   0  0  0  0  0  0  0  0  0  0  0  0
    5.5624   -3.1232    1.7290 H   0  0  0  0  0  0  0  0  0  0  0  0
    6.2090   -3.7088    0.1671 H   0  0  0  0  0  0  0  0  0  0  0  0
    4.4569   -2.1215   -0.1145 H   0  0  0  0  0  0  0  0  0  0  0  0
   -0.2593   -1.6103   -1.7447 H   0  0  0  0  0  0  0  0  0  0  0  0
   -1.0312   -1.2886   -0.1779 H   0  0  0  0  0  0  0  0  0  0  0  0
    0.5926   -1.9898   -0.2411 H   0  0  0  0  0  0  0  0  0  0  0  0
   -4.9436    2.6572   -0.2525 H   0  0  0  0  0  0  0  0  0  0  0  0
   -4.1515    2.7211    2.6827 H   0  0  0  0  0  0  0  0  0  0  0  0
   -5.1614    1.4859    1.9209 H   0  0  0  0  0  0  0  0  0  0  0  0
   -5.7279    3.1526    2.0195 H   0  0  0  0  0  0  0  0  0  0  0  0
   -3.0810    4.5680    1.2123 H   0  0  0  0  0  0  0  0  0  0  0  0
   -3.4950    4.6307   -0.5098 H   0  0  0  0  0  0  0  0  0  0  0  0
   -4.7272    4.9245    0.7066 H   0  0  0  0  0  0  0  0  0  0  0  0
   -1.0645    2.8996    2.7975 H   0  0  0  0  0  0  0  0  0  0  0  0
  1  2  2  0  0  0  0
  2  3  1  0  0  0  0
  3  4  1  0  0  0  0
  4  5  4  0  0  0  0
  5  6  4  0  0  0  0
  6  7  1  0  0  0  0
  7  8  1  0  0  0  0
  6  9  4  0  0  0  0
  9 10  1  0  0  0  0
 10 11  1  0  0  0  0
  9 12  4  0  0  0  0
  4 13  4  0  0  0  0
 12 13  4  0  0  0  0
  3 14  1  0  0  0  0
 14 15  1  0  0  0  0
 15 16  1  0  0  0  0
 16 17  4  0  0  0  0
 17 18  1  0  0  0  0
 18 19  1  0  0  0  0
 19 20  1  0  0  0  0
 20 21  4  0  0  0  0
 21 22  4  0  0  0  0
 22 23  4  0  0  0  0
 23 24  1  0  0  0  0
 24 25  1  0  0  0  0
 23 26  4  0  0  0  0
 26 27  1  0  0  0  0
 27 28  1  0  0  0  0
 20 29  4  0  0  0  0
 26 29  4  0  0  0  0
 17 30  1  0  0  0  0
  3 31  1  0  0  0  0
 31 32  1  0  0  0  0
 31 33  1  0  0  0  0
  5 34  1  0  0  0  0
  8 35  1  0  0  0  0
  8 36  1  0  0  0  0
  8 37  1  0  0  0  0
 11 38  1  0  0  0  0
 11 39  1  0  0  0  0
 11 40  1  0  0  0  0
 12 41  1  0  0  0  0
 13 42  1  0  0  0  0
 14 43  1  0  0  0  0
 14 44  1  0  0  0  0
 15 45  1  0  0  0  0
 15 46  1  0  0  0  0
  2 47  1  0  0  0  0
 16 48  1  0  0  0  0
 18 49  1  0  0  0  0
 18 50  1  0  0  0  0
 19 51  1  0  0  0  0
 19 52  1  0  0  0  0
 21 53  1  0  0  0  0
 22 54  1  0  0  0  0
 25 55  1  0  0  0  0
 25 56  1  0  0  0  0
 25 57  1  0  0  0  0
 28 58  1  0  0  0  0
 28 59  1  0  0  0  0
 28 60  1  0  0  0  0
 29 61  1  0  0  0  0
 30 62  1  0  0  0  0
 30 63  1  0  0  0  0
 30 64  1  0  0  0  0
 31 65  1  0  0  0  0
 32 66  1  0  0  0  0
 32 67  1  0  0  0  0
 32 68  1  0  0  0  0
 33 69  1  0  0  0  0
 33 70  1  0  0  0  0
 33 71  1  0  0  0  0
  1 72  1  0  0  0  0
M  CHG  1   1   1
M  END
