 xtb: 6.6.1 (8d0f1dd)
          06052419583D

 25 26  0     0  0            999 V2000
    3.4582    0.8363   -0.1373 C   0  0  0  0  0  0  0  0  0  0  0  0
    2.4194   -0.1522   -0.0976 N   0  0  0  0  0  0  0  0  0  0  0  0
    2.5755   -1.4775    0.0219 C   0  0  0  0  0  0  0  0  0  0  0  0
    1.3556   -2.0796    0.0952 N   0  0  0  0  0  0  0  0  0  0  0  0
    0.4035   -1.1076    0.0296 C   0  0  0  0  0  0  0  0  0  0  0  0
    1.0682    0.1252   -0.1064 C   0  0  0  0  0  0  0  0  0  0  0  0
    0.3589    1.3057   -0.2886 C   0  0  0  0  0  0  0  0  0  0  0  0
   -2.2119    2.8954    0.7914 O   0  0  0  0  0  0  0  0  0  0  0  0
   -0.9760    1.1715   -0.2445 N   0  0  0  0  0  0  0  0  0  0  0  0
   -1.8089    2.3851   -0.4172 C   0  0  0  0  0  0  0  0  0  0  0  0
   -1.6891    0.0001    0.0188 C   0  0  0  0  0  0  0  0  0  0  0  0
   -2.8865    0.0005    0.1646 O   0  0  0  0  0  0  0  0  0  0  0  0
   -0.9428   -1.1859    0.0879 N   0  0  0  0  0  0  0  0  0  0  0  0
   -1.6340   -2.4503    0.2451 C   0  0  0  0  0  0  0  0  0  0  0  0
    3.8487    1.0199    0.8663 H   0  0  0  0  0  0  0  0  0  0  0  0
    4.2753    0.5056   -0.7769 H   0  0  0  0  0  0  0  0  0  0  0  0
    3.0354    1.7624   -0.5227 H   0  0  0  0  0  0  0  0  0  0  0  0
    3.5125   -1.9959    0.0555 H   0  0  0  0  0  0  0  0  0  0  0  0
   -2.9275    2.3744    1.1875 H   0  0  0  0  0  0  0  0  0  0  0  0
   -1.1694    3.1330   -0.8902 H   0  0  0  0  0  0  0  0  0  0  0  0
   -2.6438    2.1095   -1.0844 H   0  0  0  0  0  0  0  0  0  0  0  0
   -1.2929   -2.9620    1.1457 H   0  0  0  0  0  0  0  0  0  0  0  0
   -1.4695   -3.0834   -0.6291 H   0  0  0  0  0  0  0  0  0  0  0  0
   -2.6983   -2.2379    0.3359 H   0  0  0  0  0  0  0  0  0  0  0  0
    1.1997   -3.0739    0.1806 H   0  0  0  0  0  0  0  0  0  0  0  0
  1  2  1  0  0  0  0
  2  3  4  0  0  0  0
  3  4  4  0  0  0  0
  4  5  1  0  0  0  0
  2  6  1  0  0  0  0
  5  6  4  0  0  0  0
  6  7  4  0  0  0  0
  7  9  4  0  0  0  0
  8 10  1  0  0  0  0
  9 10  1  0  0  0  0
  9 11  1  0  0  0  0
 11 12  2  0  0  0  0
  5 13  4  0  0  0  0
 11 13  1  0  0  0  0
 13 14  1  0  0  0  0
  1 15  1  0  0  0  0
  1 16  1  0  0  0  0
  1 17  1  0  0  0  0
  3 18  1  0  0  0  0
  8 19  1  0  0  0  0
 10 20  1  0  0  0  0
 10 21  1  0  0  0  0
 14 22  1  0  0  0  0
 14 23  1  0  0  0  0
 14 24  1  0  0  0  0
  4 25  1  0  0  0  0
M  CHG  1   1   1
M  END
