 xtb: 6.6.1 (8d0f1dd)
          04062411123D

 72 74  0     0  0            999 V2000
   -1.3956    3.0776    0.8370 N   0  0  0  0  0  0  0  0  0  0  0  0
   -1.4608    1.6600    0.5999 C   0  0  0  0  0  0  0  0  0  0  0  0
   -2.8420    1.4661   -0.0574 C   0  0  0  0  0  0  0  0  0  0  0  0
   -3.4936    0.1170    0.1405 C   0  0  0  0  0  0  0  0  0  0  0  0
   -4.5278   -0.2700   -0.7137 C   0  0  0  0  0  0  0  0  0  0  0  0
   -5.1820   -1.4834   -0.5727 C   0  0  0  0  0  0  0  0  0  0  0  0
   -6.1792   -1.9258   -1.3596 O   0  0  0  0  0  0  0  0  0  0  0  0
   -6.6223   -1.1324   -2.4358 C   0  0  0  0  0  0  0  0  0  0  0  0
   -4.8055   -2.3647    0.4796 C   0  0  0  0  0  0  0  0  0  0  0  0
   -5.4854   -3.5209    0.5406 O   0  0  0  0  0  0  0  0  0  0  0  0
   -5.2038   -4.4355    1.5753 C   0  0  0  0  0  0  0  0  0  0  0  0
   -3.7999   -1.9632    1.3456 C   0  0  0  0  0  0  0  0  0  0  0  0
   -3.1614   -0.7427    1.1815 C   0  0  0  0  0  0  0  0  0  0  0  0
   -2.4810    1.7337   -1.5342 C   0  0  0  0  0  0  0  0  0  0  0  0
   -1.1792    0.9691   -1.7403 C   0  0  0  0  0  0  0  0  0  0  0  0
   -0.3772    1.2423   -0.4554 C   0  0  0  0  0  0  0  0  0  0  0  0
    0.4626    0.1828    0.0210 N   0  0  0  0  0  0  0  0  0  0  0  0
    1.8738    0.3968    0.1369 C   0  0  0  0  0  0  0  0  0  0  0  0
    2.6726    0.1728   -1.1726 C   0  0  0  0  0  0  0  0  0  0  0  0
    4.1361    0.2616   -0.8728 C   0  0  0  0  0  0  0  0  0  0  0  0
    4.8445    1.4393   -1.0705 C   0  0  0  0  0  0  0  0  0  0  0  0
    6.1817    1.5322   -0.7210 C   0  0  0  0  0  0  0  0  0  0  0  0
    6.8411    0.4491   -0.1528 C   0  0  0  0  0  0  0  0  0  0  0  0
    8.1229    0.4303    0.2457 O   0  0  0  0  0  0  0  0  0  0  0  0
    8.9065    1.5944    0.1154 C   0  0  0  0  0  0  0  0  0  0  0  0
    6.1261   -0.7682    0.0459 C   0  0  0  0  0  0  0  0  0  0  0  0
    6.8408   -1.7671    0.5937 O   0  0  0  0  0  0  0  0  0  0  0  0
    6.2240   -3.0100    0.8337 C   0  0  0  0  0  0  0  0  0  0  0  0
    4.7900   -0.8362   -0.3167 C   0  0  0  0  0  0  0  0  0  0  0  0
    0.0228   -1.1817   -0.0729 C   0  0  0  0  0  0  0  0  0  0  0  0
   -3.7107    2.6191    0.5226 C   0  0  0  0  0  0  0  0  0  0  0  0
   -4.5480    2.1984    1.7283 C   0  0  0  0  0  0  0  0  0  0  0  0
   -2.6900    3.6957    0.9339 C   0  0  0  0  0  0  0  0  0  0  0  0
   -4.8470    0.4016   -1.4924 H   0  0  0  0  0  0  0  0  0  0  0  0
   -7.0398   -0.1824   -2.0888 H   0  0  0  0  0  0  0  0  0  0  0  0
   -7.4042   -1.7126   -2.9218 H   0  0  0  0  0  0  0  0  0  0  0  0
   -5.8165   -0.9406   -3.1509 H   0  0  0  0  0  0  0  0  0  0  0  0
   -5.3865   -3.9946    2.5598 H   0  0  0  0  0  0  0  0  0  0  0  0
   -5.8858   -5.2696    1.4214 H   0  0  0  0  0  0  0  0  0  0  0  0
   -4.1720   -4.7961    1.5210 H   0  0  0  0  0  0  0  0  0  0  0  0
   -3.5048   -2.5972    2.1661 H   0  0  0  0  0  0  0  0  0  0  0  0
   -2.4097   -0.4782    1.9069 H   0  0  0  0  0  0  0  0  0  0  0  0
   -3.2479    1.4259   -2.2381 H   0  0  0  0  0  0  0  0  0  0  0  0
   -2.3041    2.8016   -1.6620 H   0  0  0  0  0  0  0  0  0  0  0  0
   -1.3940   -0.0930   -1.8452 H   0  0  0  0  0  0  0  0  0  0  0  0
   -0.6409    1.3005   -2.6258 H   0  0  0  0  0  0  0  0  0  0  0  0
   -1.3091    1.0929    1.5237 H   0  0  0  0  0  0  0  0  0  0  0  0
    0.2546    2.1210   -0.6115 H   0  0  0  0  0  0  0  0  0  0  0  0
    2.2615   -0.2906    0.8945 H   0  0  0  0  0  0  0  0  0  0  0  0
    2.0504    1.4165    0.4848 H   0  0  0  0  0  0  0  0  0  0  0  0
    2.3813    0.9236   -1.9066 H   0  0  0  0  0  0  0  0  0  0  0  0
    2.4293   -0.8149   -1.5662 H   0  0  0  0  0  0  0  0  0  0  0  0
    4.3527    2.2949   -1.5069 H   0  0  0  0  0  0  0  0  0  0  0  0
    6.7066    2.4576   -0.8927 H   0  0  0  0  0  0  0  0  0  0  0  0
    8.4788    2.4289    0.6792 H   0  0  0  0  0  0  0  0  0  0  0  0
    9.0227    1.8828   -0.9336 H   0  0  0  0  0  0  0  0  0  0  0  0
    9.8799    1.3393    0.5298 H   0  0  0  0  0  0  0  0  0  0  0  0
    6.9943   -3.6375    1.2781 H   0  0  0  0  0  0  0  0  0  0  0  0
    5.3876   -2.9140    1.5334 H   0  0  0  0  0  0  0  0  0  0  0  0
    5.8736   -3.4696   -0.0954 H   0  0  0  0  0  0  0  0  0  0  0  0
    4.2394   -1.7529   -0.1746 H   0  0  0  0  0  0  0  0  0  0  0  0
    0.2501   -1.6375   -1.0461 H   0  0  0  0  0  0  0  0  0  0  0  0
   -1.0525   -1.2361    0.0899 H   0  0  0  0  0  0  0  0  0  0  0  0
    0.5230   -1.7688    0.6985 H   0  0  0  0  0  0  0  0  0  0  0  0
   -4.3829    2.9935   -0.2514 H   0  0  0  0  0  0  0  0  0  0  0  0
   -3.9169    1.7999    2.5193 H   0  0  0  0  0  0  0  0  0  0  0  0
   -5.2747    1.4382    1.4547 H   0  0  0  0  0  0  0  0  0  0  0  0
   -5.0866    3.0590    2.1165 H   0  0  0  0  0  0  0  0  0  0  0  0
   -2.7214    4.6002    0.2868 H   0  0  0  0  0  0  0  0  0  0  0  0
   -2.6895    6.5841   -0.0499 H   0  0  0  0  0  0  0  0  0  0  0  0
   -2.8961    4.0536    1.9505 H   0  0  0  0  0  0  0  0  0  0  0  0
   -0.6964    3.3985    1.4878 H   0  0  0  0  0  0  0  0  0  0  0  0
  1  2  1  0  0  0  0
  2  3  1  0  0  0  0
  3  4  1  0  0  0  0
  4  5  4  0  0  0  0
  5  6  4  0  0  0  0
  6  7  1  0  0  0  0
  7  8  1  0  0  0  0
  6  9  4  0  0  0  0
  9 10  1  0  0  0  0
 10 11  1  0  0  0  0
  9 12  4  0  0  0  0
  4 13  4  0  0  0  0
 12 13  4  0  0  0  0
  3 14  1  0  0  0  0
 14 15  1  0  0  0  0
  2 16  1  0  0  0  0
 15 16  1  0  0  0  0
 16 17  1  0  0  0  0
 17 18  1  0  0  0  0
 18 19  1  0  0  0  0
 19 20  1  0  0  0  0
 20 21  4  0  0  0  0
 21 22  4  0  0  0  0
 22 23  4  0  0  0  0
 23 24  1  0  0  0  0
 24 25  1  0  0  0  0
 23 26  4  0  0  0  0
 26 27  1  0  0  0  0
 27 28  1  0  0  0  0
 20 29  4  0  0  0  0
 26 29  4  0  0  0  0
 17 30  1  0  0  0  0
  3 31  1  0  0  0  0
 31 32  1  0  0  0  0
  1 33  1  0  0  0  0
 31 33  1  0  0  0  0
  5 34  1  0  0  0  0
  8 35  1  0  0  0  0
  8 36  1  0  0  0  0
  8 37  1  0  0  0  0
 11 38  1  0  0  0  0
 11 39  1  0  0  0  0
 11 40  1  0  0  0  0
 12 41  1  0  0  0  0
 13 42  1  0  0  0  0
 14 43  1  0  0  0  0
 14 44  1  0  0  0  0
 15 45  1  0  0  0  0
 15 46  1  0  0  0  0
  2 47  1  0  0  0  0
 16 48  1  0  0  0  0
 18 49  1  0  0  0  0
 18 50  1  0  0  0  0
 19 51  1  0  0  0  0
 19 52  1  0  0  0  0
 21 53  1  0  0  0  0
 22 54  1  0  0  0  0
 25 55  1  0  0  0  0
 25 56  1  0  0  0  0
 25 57  1  0  0  0  0
 28 58  1  0  0  0  0
 28 59  1  0  0  0  0
 28 60  1  0  0  0  0
 29 61  1  0  0  0  0
 30 62  1  0  0  0  0
 30 63  1  0  0  0  0
 30 64  1  0  0  0  0
 31 65  1  0  0  0  0
 32 66  1  0  0  0  0
 32 67  1  0  0  0  0
 32 68  1  0  0  0  0
 33 69  1  0  0  0  0
 33 71  1  0  0  0  0
  1 72  1  0  0  0  0
M  CHG  1   1   1
M  END
