          24
 
C              3.22079342        1.13070086        0.01910973
N              2.26655783        0.05689008       -0.00211445
C              2.55603113       -1.24693747       -0.01352430
N              1.38867440       -1.93066415       -0.01057428
C              0.34469643       -1.05439134        0.00185001
C              0.90144317        0.21875237        0.00896114
C              0.07496197        1.40469329       -0.00020429
O              0.46841965        2.54738450       -0.01294157
N             -1.28344892        1.07918774        0.00101972
C             -2.23566722        2.17829636       -0.00644760
C             -1.85448848       -0.18247772        0.00391903
O             -3.04452120       -0.34360949        0.00448411
N             -0.97935299       -1.28419052        0.00394477
C             -1.53162787       -2.62186264        0.00305563
H              3.66252147        1.22133256        1.01371861
H              4.01934848        0.92843110       -0.69319328
H              2.71973913        2.06507374       -0.23038106
H             -1.67948851        3.11332663       -0.00021944
H             -2.86537437        2.11800655       -0.89516806
H             -2.88189613        2.11469209        0.86999435
H             -1.21525711       -3.16414959        0.89511893
H             -1.21708043       -3.16315180       -0.89024197
H             -2.61747701       -2.53344451        0.00409997
H              1.33081564       -2.93793735       -0.01939024
