 xtb: 6.6.1 (8d0f1dd)
          06052420003D

 25 25  0     0  0            999 V2000
    3.2526    1.2311    0.0017 C   0  0  0  0  0  0  0  0  0  0  0  0
    2.3167    0.1406    0.0601 N   0  0  0  0  0  0  0  0  0  0  0  0
    2.6093   -1.1535    0.1195 C   0  0  0  0  0  0  0  0  0  0  0  0
    1.4759   -1.8822    0.1654 N   0  0  0  0  0  0  0  0  0  0  0  0
    0.4138   -1.0116    0.1406 C   0  0  0  0  0  0  0  0  0  0  0  0
    0.9486    0.2694    0.0730 C   0  0  0  0  0  0  0  0  0  0  0  0
    0.1209    1.4533    0.0093 C   0  0  0  0  0  0  0  0  0  0  0  0
    0.5170    2.5940   -0.0598 O   0  0  0  0  0  0  0  0  0  0  0  0
   -1.2384    1.1182    0.0316 N   0  0  0  0  0  0  0  0  0  0  0  0
   -2.1961    2.2194   -0.0284 C   0  0  0  0  0  0  0  0  0  0  0  0
   -1.8113   -0.1217    0.1051 C   0  0  0  0  0  0  0  0  0  0  0  0
   -2.9923   -0.3123    0.1216 O   0  0  0  0  0  0  0  0  0  0  0  0
   -0.9144   -1.2722    0.1658 N   0  0  0  0  0  0  0  0  0  0  0  0
   -1.4722   -2.4896    0.2444 C   0  0  0  0  0  0  0  0  0  0  0  0
    3.7538    1.3530    0.9630 H   0  0  0  0  0  0  0  0  0  0  0  0
    4.0034    1.0421   -0.7644 H   0  0  0  0  0  0  0  0  0  0  0  0
    2.7103    2.1475   -0.2284 H   0  0  0  0  0  0  0  0  0  0  0  0
    3.6001   -1.5643    0.1185 H   0  0  0  0  0  0  0  0  0  0  0  0
   -1.6367    3.1515   -0.0366 H   0  0  0  0  0  0  0  0  0  0  0  0
   -2.7995    2.1351   -0.9314 H   0  0  0  0  0  0  0  0  0  0  0  0
   -2.8569    2.1793    0.8363 H   0  0  0  0  0  0  0  0  0  0  0  0
   -0.8658   -3.3697    0.2985 H   0  0  0  0  0  0  0  0  0  0  0  0
   -2.6659   -4.6128   -1.8515 H   0  0  0  0  0  0  0  0  0  0  0  0
   -2.5436   -2.5364    0.2638 H   0  0  0  0  0  0  0  0  0  0  0  0
    1.4314   -2.8899    0.2135 H   0  0  0  0  0  0  0  0  0  0  0  0
  1  2  1  0  0  0  0
  2  3  4  0  0  0  0
  3  4  4  0  0  0  0
  4  5  1  0  0  0  0
  2  6  1  0  0  0  0
  5  6  4  0  0  0  0
  6  7  1  0  0  0  0
  7  8  2  0  0  0  0
  7  9  1  0  0  0  0
  9 10  1  0  0  0  0
  9 11  1  0  0  0  0
 11 12  2  0  0  0  0
  5 13  1  0  0  0  0
 11 13  1  0  0  0  0
 13 14  4  0  0  0  0
  1 15  1  0  0  0  0
  1 16  1  0  0  0  0
  1 17  1  0  0  0  0
  3 18  1  0  0  0  0
 10 19  1  0  0  0  0
 10 20  1  0  0  0  0
 10 21  1  0  0  0  0
 14 22  1  0  0  0  0
 14 24  1  0  0  0  0
  4 25  1  0  0  0  0
M  CHG  1   1   1
M  END
