 xtb: 6.6.1 (8d0f1dd)
          04062411163D

 72 73  0     0  0            999 V2000
   -2.5409    3.0467    2.5320 N   0  0  0  0  0  0  0  0  0  0  0  0
   -2.2633    2.1387    1.7192 C   0  0  0  0  0  0  0  0  0  0  0  0
   -3.1131    1.7975    0.5224 C   0  0  0  0  0  0  0  0  0  0  0  0
   -3.6421    0.3872    0.6482 C   0  0  0  0  0  0  0  0  0  0  0  0
   -4.2734   -0.2279   -0.4437 C   0  0  0  0  0  0  0  0  0  0  0  0
   -4.8008   -1.4895   -0.3620 C   0  0  0  0  0  0  0  0  0  0  0  0
   -5.3755   -2.1647   -1.3643 O   0  0  0  0  0  0  0  0  0  0  0  0
   -5.5910   -1.5364   -2.6133 C   0  0  0  0  0  0  0  0  0  0  0  0
   -4.8491   -2.2524    0.9435 C   0  0  0  0  0  0  0  0  0  0  0  0
   -6.2031   -2.2819    1.4104 O   0  0  0  0  0  0  0  0  0  0  0  0
   -6.9702   -3.3790    0.9786 C   0  0  0  0  0  0  0  0  0  0  0  0
   -4.0490   -1.5741    2.0084 C   0  0  0  0  0  0  0  0  0  0  0  0
   -3.5346   -0.3341    1.8603 C   0  0  0  0  0  0  0  0  0  0  0  0
   -2.1334    1.8904   -0.6963 C   0  0  0  0  0  0  0  0  0  0  0  0
   -1.1753    0.7486   -0.7335 C   0  0  0  0  0  0  0  0  0  0  0  0
    0.1248    0.8690   -0.4083 C   0  0  0  0  0  0  0  0  0  0  0  0
    1.0274   -0.1406   -0.3243 N   0  0  0  0  0  0  0  0  0  0  0  0
    2.4230    0.1250   -0.1084 C   0  0  0  0  0  0  0  0  0  0  0  0
    3.2496    0.0861   -1.4127 C   0  0  0  0  0  0  0  0  0  0  0  0
    4.7077    0.2308   -1.0920 C   0  0  0  0  0  0  0  0  0  0  0  0
    5.3306    1.4697   -1.1235 C   0  0  0  0  0  0  0  0  0  0  0  0
    6.6672    1.6024   -0.7817 C   0  0  0  0  0  0  0  0  0  0  0  0
    7.4108    0.4964   -0.3916 C   0  0  0  0  0  0  0  0  0  0  0  0
    8.7065    0.5062   -0.0337 O   0  0  0  0  0  0  0  0  0  0  0  0
    9.4177    1.7225   -0.0453 C   0  0  0  0  0  0  0  0  0  0  0  0
    6.7806   -0.7804   -0.3549 C   0  0  0  0  0  0  0  0  0  0  0  0
    7.5723   -1.7987    0.0307 O   0  0  0  0  0  0  0  0  0  0  0  0
    7.0436   -3.1021    0.0888 C   0  0  0  0  0  0  0  0  0  0  0  0
    5.4433   -0.8867   -0.7035 C   0  0  0  0  0  0  0  0  0  0  0  0
    0.6377   -1.4920   -0.6337 C   0  0  0  0  0  0  0  0  0  0  0  0
   -4.3245    2.7550    0.3215 C   0  0  0  0  0  0  0  0  0  0  0  0
   -5.3163    2.6342    1.4767 C   0  0  0  0  0  0  0  0  0  0  0  0
   -3.9166    4.2131    0.1361 C   0  0  0  0  0  0  0  0  0  0  0  0
   -4.3342    0.3089   -1.3769 H   0  0  0  0  0  0  0  0  0  0  0  0
   -6.2203   -0.6492   -2.5044 H   0  0  0  0  0  0  0  0  0  0  0  0
   -6.1032   -2.2732   -3.2291 H   0  0  0  0  0  0  0  0  0  0  0  0
   -4.6444   -1.2624   -3.0871 H   0  0  0  0  0  0  0  0  0  0  0  0
   -6.5459   -4.3241    1.3388 H   0  0  0  0  0  0  0  0  0  0  0  0
   -7.9599   -3.2399    1.4089 H   0  0  0  0  0  0  0  0  0  0  0  0
   -7.0488   -3.4146   -0.1125 H   0  0  0  0  0  0  0  0  0  0  0  0
   -3.9856   -2.0956    2.9500 H   0  0  0  0  0  0  0  0  0  0  0  0
   -3.0366    0.1285    2.6982 H   0  0  0  0  0  0  0  0  0  0  0  0
   -2.7254    1.9080   -1.6128 H   0  0  0  0  0  0  0  0  0  0  0  0
   -1.5891    2.8326   -0.6258 H   0  0  0  0  0  0  0  0  0  0  0  0
   -4.5180   -3.2885    0.7978 H   0  0  0  0  0  0  0  0  0  0  0  0
   -1.5921   -0.2115   -0.9920 H   0  0  0  0  0  0  0  0  0  0  0  0
   -1.3492    1.5271    1.7697 H   0  0  0  0  0  0  0  0  0  0  0  0
    0.5244    1.8452   -0.1648 H   0  0  0  0  0  0  0  0  0  0  0  0
    2.8227   -0.6222    0.5851 H   0  0  0  0  0  0  0  0  0  0  0  0
    2.5353    1.1080    0.3534 H   0  0  0  0  0  0  0  0  0  0  0  0
    2.9199    0.8936   -2.0674 H   0  0  0  0  0  0  0  0  0  0  0  0
    3.0714   -0.8638   -1.9188 H   0  0  0  0  0  0  0  0  0  0  0  0
    4.7752    2.3443   -1.4256 H   0  0  0  0  0  0  0  0  0  0  0  0
    7.1252    2.5771   -0.8227 H   0  0  0  0  0  0  0  0  0  0  0  0
    8.9833    2.4467    0.6505 H   0  0  0  0  0  0  0  0  0  0  0  0
    9.4534    2.1557   -1.0493 H   0  0  0  0  0  0  0  0  0  0  0  0
   10.4270    1.4732    0.2767 H   0  0  0  0  0  0  0  0  0  0  0  0
    7.8657   -3.7369    0.4136 H   0  0  0  0  0  0  0  0  0  0  0  0
    6.2259   -3.1711    0.8134 H   0  0  0  0  0  0  0  0  0  0  0  0
    6.6935   -3.4371   -0.8924 H   0  0  0  0  0  0  0  0  0  0  0  0
    4.9585   -1.8503   -0.6863 H   0  0  0  0  0  0  0  0  0  0  0  0
    0.3738   -1.6026   -1.6897 H   0  0  0  0  0  0  0  0  0  0  0  0
   -0.2262   -1.7800   -0.0303 H   0  0  0  0  0  0  0  0  0  0  0  0
    1.4588   -2.1669   -0.4054 H   0  0  0  0  0  0  0  0  0  0  0  0
   -4.8316    2.4272   -0.5938 H   0  0  0  0  0  0  0  0  0  0  0  0
   -4.8536    2.9697    2.3998 H   0  0  0  0  0  0  0  0  0  0  0  0
   -5.6516    1.6071    1.6034 H   0  0  0  0  0  0  0  0  0  0  0  0
   -6.1850    3.2574    1.2797 H   0  0  0  0  0  0  0  0  0  0  0  0
   -3.3840    4.5696    1.0126 H   0  0  0  0  0  0  0  0  0  0  0  0
   -3.2943    4.3522   -0.7440 H   0  0  0  0  0  0  0  0  0  0  0  0
   -4.8107    4.8190    0.0117 H   0  0  0  0  0  0  0  0  0  0  0  0
   -1.8883    3.2240    3.2890 H   0  0  0  0  0  0  0  0  0  0  0  0
  1  2  2  0  0  0  0
  2  3  1  0  0  0  0
  3  4  1  0  0  0  0
  4  5  4  0  0  0  0
  5  6  4  0  0  0  0
  6  7  1  0  0  0  0
  7  8  1  0  0  0  0
  6  9  1  0  0  0  0
  9 10  1  0  0  0  0
 10 11  1  0  0  0  0
  9 12  1  0  0  0  0
  4 13  4  0  0  0  0
 12 13  2  0  0  0  0
  3 14  1  0  0  0  0
 14 15  1  0  0  0  0
 15 16  2  0  0  0  0
 16 17  4  0  0  0  0
 17 18  1  0  0  0  0
 18 19  1  0  0  0  0
 19 20  1  0  0  0  0
 20 21  4  0  0  0  0
 21 22  4  0  0  0  0
 22 23  4  0  0  0  0
 23 24  1  0  0  0  0
 24 25  1  0  0  0  0
 23 26  4  0  0  0  0
 26 27  1  0  0  0  0
 27 28  1  0  0  0  0
 20 29  4  0  0  0  0
 26 29  4  0  0  0  0
 17 30  1  0  0  0  0
  3 31  1  0  0  0  0
 31 32  1  0  0  0  0
 31 33  1  0  0  0  0
  5 34  1  0  0  0  0
  8 35  1  0  0  0  0
  8 36  1  0  0  0  0
  8 37  1  0  0  0  0
 11 38  1  0  0  0  0
 11 39  1  0  0  0  0
 11 40  1  0  0  0  0
 12 41  1  0  0  0  0
 13 42  1  0  0  0  0
 14 43  1  0  0  0  0
 14 44  1  0  0  0  0
  9 45  1  0  0  0  0
 15 46  1  0  0  0  0
  2 47  1  0  0  0  0
 16 48  1  0  0  0  0
 18 49  1  0  0  0  0
 18 50  1  0  0  0  0
 19 51  1  0  0  0  0
 19 52  1  0  0  0  0
 21 53  1  0  0  0  0
 22 54  1  0  0  0  0
 25 55  1  0  0  0  0
 25 56  1  0  0  0  0
 25 57  1  0  0  0  0
 28 58  1  0  0  0  0
 28 59  1  0  0  0  0
 28 60  1  0  0  0  0
 29 61  1  0  0  0  0
 30 62  1  0  0  0  0
 30 63  1  0  0  0  0
 30 64  1  0  0  0  0
 31 65  1  0  0  0  0
 32 66  1  0  0  0  0
 32 67  1  0  0  0  0
 32 68  1  0  0  0  0
 33 69  1  0  0  0  0
 33 70  1  0  0  0  0
 33 71  1  0  0  0  0
  1 72  1  0  0  0  0
M  CHG  1   1   1
M  END
