 xtb: 6.6.1 (8d0f1dd)
          04062411133D

 72 73  0     0  0            999 V2000
   -2.1197    2.3252    2.4778 N   0  0  0  0  0  0  0  0  0  0  0  0
   -2.7633    1.6274    1.6566 C   0  0  0  0  0  0  0  0  0  0  0  0
   -3.2984    1.9765    0.2614 C   0  0  0  0  0  0  0  0  0  0  0  0
   -3.8446    0.5441    0.2827 C   0  0  0  0  0  0  0  0  0  0  0  0
   -4.6087   -0.1011   -0.7122 C   0  0  0  0  0  0  0  0  0  0  0  0
   -4.9774   -1.4124   -0.7449 C   0  0  0  0  0  0  0  0  0  0  0  0
   -5.6837   -2.0044   -1.7096 O   0  0  0  0  0  0  0  0  0  0  0  0
   -6.1295   -1.2625   -2.8284 C   0  0  0  0  0  0  0  0  0  0  0  0
   -4.5314   -2.4198    0.2822 C   0  0  0  0  0  0  0  0  0  0  0  0
   -5.0748   -2.2268    1.5041 O   0  0  0  0  0  0  0  0  0  0  0  0
   -4.7291   -3.1988    2.4704 C   0  0  0  0  0  0  0  0  0  0  0  0
   -3.6789   -3.3465   -0.0748 C   0  0  0  0  0  0  0  0  0  0  0  0
   -3.3280    0.2945    1.5276 C   0  0  0  0  0  0  0  0  0  0  0  0
   -2.2229    2.2452   -0.7973 C   0  0  0  0  0  0  0  0  0  0  0  0
   -1.3296    1.0504   -1.1375 C   0  0  0  0  0  0  0  0  0  0  0  0
   -0.3164    0.7227   -0.0344 C   0  0  0  0  0  0  0  0  0  0  0  0
    0.6492   -0.2557   -0.4702 N   0  0  0  0  0  0  0  0  0  0  0  0
    2.0333   -0.0763   -0.1130 C   0  0  0  0  0  0  0  0  0  0  0  0
    2.9432   -0.1648   -1.3573 C   0  0  0  0  0  0  0  0  0  0  0  0
    4.3798    0.0256   -0.9748 C   0  0  0  0  0  0  0  0  0  0  0  0
    5.0136    1.2493   -1.1494 C   0  0  0  0  0  0  0  0  0  0  0  0
    6.3375    1.4255   -0.7823 C   0  0  0  0  0  0  0  0  0  0  0  0
    7.0609    0.3813   -0.2186 C   0  0  0  0  0  0  0  0  0  0  0  0
    8.3453    0.4336    0.1676 O   0  0  0  0  0  0  0  0  0  0  0  0
    9.0757    1.6264   -0.0068 C   0  0  0  0  0  0  0  0  0  0  0  0
    6.4160   -0.8752   -0.0196 C   0  0  0  0  0  0  0  0  0  0  0  0
    7.1819   -1.8283    0.5388 O   0  0  0  0  0  0  0  0  0  0  0  0
    6.6400   -3.1075    0.7700 C   0  0  0  0  0  0  0  0  0  0  0  0
    5.0915   -1.0264   -0.4032 C   0  0  0  0  0  0  0  0  0  0  0  0
    0.1901   -1.6180   -0.4667 C   0  0  0  0  0  0  0  0  0  0  0  0
   -4.3768    3.0764    0.2776 C   0  0  0  0  0  0  0  0  0  0  0  0
   -5.4734    2.7624    1.2944 C   0  0  0  0  0  0  0  0  0  0  0  0
   -3.7606    4.4386    0.5853 C   0  0  0  0  0  0  0  0  0  0  0  0
   -4.9240    0.5410   -1.5247 H   0  0  0  0  0  0  0  0  0  0  0  0
   -6.8101   -0.4621   -2.5268 H   0  0  0  0  0  0  0  0  0  0  0  0
   -6.6638   -1.9737   -3.4559 H   0  0  0  0  0  0  0  0  0  0  0  0
   -5.2881   -0.8417   -3.3863 H   0  0  0  0  0  0  0  0  0  0  0  0
   -3.6488   -3.1933    2.6582 H   0  0  0  0  0  0  0  0  0  0  0  0
   -5.2734   -2.9362    3.3761 H   0  0  0  0  0  0  0  0  0  0  0  0
   -5.0175   -4.1988    2.1315 H   0  0  0  0  0  0  0  0  0  0  0  0
   -3.2081   -3.6425   -0.9816 H   0  0  0  0  0  0  0  0  0  0  0  0
   -3.3543   -0.5417    2.1989 H   0  0  0  0  0  0  0  0  0  0  0  0
   -2.7239    2.5645   -1.7143 H   0  0  0  0  0  0  0  0  0  0  0  0
   -1.5991    3.0695   -0.4507 H   0  0  0  0  0  0  0  0  0  0  0  0
   -1.9504    0.1770   -1.3458 H   0  0  0  0  0  0  0  0  0  0  0  0
   -0.7701    1.2845   -2.0452 H   0  0  0  0  0  0  0  0  0  0  0  0
   -0.8502    0.3592    0.8544 H   0  0  0  0  0  0  0  0  0  0  0  0
    0.2058    1.6411    0.2380 H   0  0  0  0  0  0  0  0  0  0  0  0
    2.3500   -0.8378    0.6115 H   0  0  0  0  0  0  0  0  0  0  0  0
    2.1730    0.9040    0.3463 H   0  0  0  0  0  0  0  0  0  0  0  0
    2.6357    0.6034   -2.0664 H   0  0  0  0  0  0  0  0  0  0  0  0
    2.8089   -1.1395   -1.8280 H   0  0  0  0  0  0  0  0  0  0  0  0
    4.4747    2.0754   -1.5868 H   0  0  0  0  0  0  0  0  0  0  0  0
    6.8040    2.3841   -0.9409 H   0  0  0  0  0  0  0  0  0  0  0  0
    8.6377    2.4510    0.5630 H   0  0  0  0  0  0  0  0  0  0  0  0
    9.1394    1.9047   -1.0628 H   0  0  0  0  0  0  0  0  0  0  0  0
   10.0738    1.4153    0.3722 H   0  0  0  0  0  0  0  0  0  0  0  0
    7.4450   -3.6901    1.2139 H   0  0  0  0  0  0  0  0  0  0  0  0
    5.7971   -3.0647    1.4669 H   0  0  0  0  0  0  0  0  0  0  0  0
    6.3210   -3.5820   -0.1628 H   0  0  0  0  0  0  0  0  0  0  0  0
    4.5993   -1.9771   -0.2703 H   0  0  0  0  0  0  0  0  0  0  0  0
   -0.7828   -1.6816   -0.9493 H   0  0  0  0  0  0  0  0  0  0  0  0
    0.0944   -2.0154    0.5541 H   0  0  0  0  0  0  0  0  0  0  0  0
    0.8917   -2.2445   -1.0151 H   0  0  0  0  0  0  0  0  0  0  0  0
   -4.8321    3.1062   -0.7203 H   0  0  0  0  0  0  0  0  0  0  0  0
   -5.0684    2.7729    2.3036 H   0  0  0  0  0  0  0  0  0  0  0  0
   -5.9192    1.7869    1.1115 H   0  0  0  0  0  0  0  0  0  0  0  0
   -6.2579    3.5126    1.2352 H   0  0  0  0  0  0  0  0  0  0  0  0
   -3.1476    4.3723    1.4811 H   0  0  0  0  0  0  0  0  0  0  0  0
   -3.1448    4.7923   -0.2369 H   0  0  0  0  0  0  0  0  0  0  0  0
   -4.5463    5.1698    0.7562 H   0  0  0  0  0  0  0  0  0  0  0  0
   -1.8750    1.9182    3.3739 H   0  0  0  0  0  0  0  0  0  0  0  0
  1  2  2  0  0  0  0
  2  3  1  0  0  0  0
  3  4  1  0  0  0  0
  4  5  4  0  0  0  0
  5  6  2  0  0  0  0
  6  7  1  0  0  0  0
  7  8  1  0  0  0  0
  6  9  1  0  0  0  0
  9 10  1  0  0  0  0
 10 11  1  0  0  0  0
  9 12  2  0  0  0  0
  2 13  1  0  0  0  0
  4 13  2  0  0  0  0
  3 14  1  0  0  0  0
 14 15  1  0  0  0  0
 15 16  1  0  0  0  0
 16 17  1  0  0  0  0
 17 18  1  0  0  0  0
 18 19  1  0  0  0  0
 19 20  1  0  0  0  0
 20 21  4  0  0  0  0
 21 22  4  0  0  0  0
 22 23  4  0  0  0  0
 23 24  1  0  0  0  0
 24 25  1  0  0  0  0
 23 26  4  0  0  0  0
 26 27  1  0  0  0  0
 27 28  1  0  0  0  0
 20 29  4  0  0  0  0
 26 29  4  0  0  0  0
 17 30  1  0  0  0  0
  3 31  1  0  0  0  0
 31 32  1  0  0  0  0
 31 33  1  0  0  0  0
  5 34  1  0  0  0  0
  8 35  1  0  0  0  0
  8 36  1  0  0  0  0
  8 37  1  0  0  0  0
 11 38  1  0  0  0  0
 11 39  1  0  0  0  0
 11 40  1  0  0  0  0
 12 41  1  0  0  0  0
 13 42  1  0  0  0  0
 14 43  1  0  0  0  0
 14 44  1  0  0  0  0
 15 45  1  0  0  0  0
 15 46  1  0  0  0  0
 16 47  1  0  0  0  0
 16 48  1  0  0  0  0
 18 49  1  0  0  0  0
 18 50  1  0  0  0  0
 19 51  1  0  0  0  0
 19 52  1  0  0  0  0
 21 53  1  0  0  0  0
 22 54  1  0  0  0  0
 25 55  1  0  0  0  0
 25 56  1  0  0  0  0
 25 57  1  0  0  0  0
 28 58  1  0  0  0  0
 28 59  1  0  0  0  0
 28 60  1  0  0  0  0
 29 61  1  0  0  0  0
 30 62  1  0  0  0  0
 30 63  1  0  0  0  0
 30 64  1  0  0  0  0
 31 65  1  0  0  0  0
 32 66  1  0  0  0  0
 32 67  1  0  0  0  0
 32 68  1  0  0  0  0
 33 69  1  0  0  0  0
 33 70  1  0  0  0  0
 33 71  1  0  0  0  0
  1 72  1  0  0  0  0
M  CHG  1   1   1
M  END
