 xtb: 6.6.1 (8d0f1dd)
          06052419573D

 25 24  0     0  0            999 V2000
    5.9109    0.6326   -0.6741 C   0  0  0  0  0  0  0  0  0  0  0  0
    4.8097   -0.0463   -0.1771 N   0  0  0  0  0  0  0  0  0  0  0  0
    3.9005   -0.6038    0.2662 C   0  0  0  0  0  0  0  0  0  0  0  0
    1.4154   -1.0402    1.2691 N   0  0  0  0  0  0  0  0  0  0  0  0
    0.5138   -0.2370    0.8606 C   0  0  0  0  0  0  0  0  0  0  0  0
   -0.2371    0.6352    0.4315 C   0  0  0  0  0  0  0  0  0  0  0  0
   -1.2145    1.4779   -0.0006 C   0  0  0  0  0  0  0  0  0  0  0  0
   -1.3039    2.5317   -0.5245 O   0  0  0  0  0  0  0  0  0  0  0  0
   -2.6384    0.7600    0.2937 N   0  0  0  0  0  0  0  0  0  0  0  0
   -3.7780    1.6310    0.4621 C   0  0  0  0  0  0  0  0  0  0  0  0
   -2.6931   -0.4951    0.2922 C   0  0  0  0  0  0  0  0  0  0  0  0
   -3.4872   -1.5140    0.4504 O   0  0  0  0  0  0  0  0  0  0  0  0
   -1.9931   -1.6456    0.2215 N   0  0  0  0  0  0  0  0  0  0  0  0
   -1.6084   -2.2553   -1.0218 C   0  0  0  0  0  0  0  0  0  0  0  0
    6.5989    0.8466    0.1445 H   0  0  0  0  0  0  0  0  0  0  0  0
    6.4103    0.0163   -1.4225 H   0  0  0  0  0  0  0  0  0  0  0  0
    5.5776    1.5668   -1.1288 H   0  0  0  0  0  0  0  0  0  0  0  0
    2.4266   -0.9194    0.9370 H   0  0  0  0  0  0  0  0  0  0  0  0
   -3.8641    1.9147    1.5117 H   0  0  0  0  0  0  0  0  0  0  0  0
   -3.5872    2.5273   -0.1307 H   0  0  0  0  0  0  0  0  0  0  0  0
   -4.6955    1.1451    0.1371 H   0  0  0  0  0  0  0  0  0  0  0  0
   -0.5745   -1.9606   -1.2013 H   0  0  0  0  0  0  0  0  0  0  0  0
   -2.2269   -1.9534   -1.8690 H   0  0  0  0  0  0  0  0  0  0  0  0
   -1.6570   -3.3349   -0.8905 H   0  0  0  0  0  0  0  0  0  0  0  0
    1.1559   -1.8613    1.7946 H   0  0  0  0  0  0  0  0  0  0  0  0
  1  2  1  0  0  0  0
  2  3  3  0  0  0  0
  4  5  4  0  0  0  0
  5  6  3  0  0  0  0
  6  7  4  0  0  0  0
  7  8  2  0  0  0  0
  7  9  1  0  0  0  0
  9 10  1  0  0  0  0
  9 11  2  0  0  0  0
 11 12  1  0  0  0  0
 11 13  1  0  0  0  0
 12 13  1  0  0  0  0
 13 14  1  0  0  0  0
  1 15  1  0  0  0  0
  1 16  1  0  0  0  0
  1 17  1  0  0  0  0
  4 18  1  0  0  0  0
 10 19  1  0  0  0  0
 10 20  1  0  0  0  0
 10 21  1  0  0  0  0
 14 22  1  0  0  0  0
 14 23  1  0  0  0  0
 14 24  1  0  0  0  0
  4 25  1  0  0  0  0
M  CHG  1   1   1
M  END
