 xtb: 6.6.1 (8d0f1dd)
          06052419573D

 25 25  0     0  0            999 V2000
    3.9097    2.8704    0.1776 C   0  0  0  0  0  0  0  0  0  0  0  0
    2.2089   -0.6516   -0.0987 N   0  0  0  0  0  0  0  0  0  0  0  0
    2.2633   -1.9482   -0.1430 C   0  0  0  0  0  0  0  0  0  0  0  0
    1.0177   -2.5199   -0.1349 N   0  0  0  0  0  0  0  0  0  0  0  0
    0.1308   -1.4949   -0.0832 C   0  0  0  0  0  0  0  0  0  0  0  0
    0.8951   -0.3211   -0.0620 C   0  0  0  0  0  0  0  0  0  0  0  0
    0.2585    0.9752    0.0004 C   0  0  0  0  0  0  0  0  0  0  0  0
    0.8214    2.0470    0.0233 O   0  0  0  0  0  0  0  0  0  0  0  0
   -1.1330    0.8694    0.0337 N   0  0  0  0  0  0  0  0  0  0  0  0
   -1.9044    2.1018    0.0997 C   0  0  0  0  0  0  0  0  0  0  0  0
   -1.8971   -0.2851    0.0139 C   0  0  0  0  0  0  0  0  0  0  0  0
   -3.0982   -0.2523    0.0517 O   0  0  0  0  0  0  0  0  0  0  0  0
   -1.2128   -1.5112   -0.0534 N   0  0  0  0  0  0  0  0  0  0  0  0
   -1.9764   -2.7406   -0.0785 C   0  0  0  0  0  0  0  0  0  0  0  0
    4.2925    3.0893    1.1566 H   0  0  0  0  0  0  0  0  0  0  0  0
    4.5691    2.9077   -0.6701 H   0  0  0  0  0  0  0  0  0  0  0  0
    2.8684    2.6233    0.0486 H   0  0  0  0  0  0  0  0  0  0  0  0
    3.1703   -2.5179   -0.1818 H   0  0  0  0  0  0  0  0  0  0  0  0
   -1.2136    2.9401    0.0507 H   0  0  0  0  0  0  0  0  0  0  0  0
   -2.6117    2.1388   -0.7295 H   0  0  0  0  0  0  0  0  0  0  0  0
   -2.4729    2.1349    1.0302 H   0  0  0  0  0  0  0  0  0  0  0  0
   -1.7224   -3.3637    0.7805 H   0  0  0  0  0  0  0  0  0  0  0  0
   -1.7851   -3.2885   -1.0025 H   0  0  0  0  0  0  0  0  0  0  0  0
   -3.0324   -2.4770   -0.0303 H   0  0  0  0  0  0  0  0  0  0  0  0
    0.8146   -3.5075   -0.1679 H   0  0  0  0  0  0  0  0  0  0  0  0
  2  3  2  0  0  0  0
  3  4  4  0  0  0  0
  4  5  4  0  0  0  0
  2  6  4  0  0  0  0
  5  6  4  0  0  0  0
  6  7  1  0  0  0  0
  7  8  2  0  0  0  0
  7  9  1  0  0  0  0
  9 10  1  0  0  0  0
  9 11  1  0  0  0  0
 11 12  2  0  0  0  0
  5 13  4  0  0  0  0
 11 13  1  0  0  0  0
 13 14  1  0  0  0  0
  1 15  1  0  0  0  0
  1 16  1  0  0  0  0
  1 17  1  0  0  0  0
  3 18  1  0  0  0  0
 10 19  1  0  0  0  0
 10 20  1  0  0  0  0
 10 21  1  0  0  0  0
 14 22  1  0  0  0  0
 14 23  1  0  0  0  0
 14 24  1  0  0  0  0
  4 25  1  0  0  0  0
M  CHG  1   1   1
M  END
