 xtb: 6.6.1 (8d0f1dd)
          04062411133D

 72 72  0     0  0            999 V2000
   -1.8296    3.2609    2.1175 N   0  0  0  0  0  0  0  0  0  0  0  0
   -1.8055    2.4689    1.1532 C   0  0  0  0  0  0  0  0  0  0  0  0
   -2.9638    2.2041    0.2322 C   0  0  0  0  0  0  0  0  0  0  0  0
   -3.4381    0.7685    0.4102 C   0  0  0  0  0  0  0  0  0  0  0  0
   -4.3705    0.2383   -0.4781 C   0  0  0  0  0  0  0  0  0  0  0  0
   -4.8256   -1.0708   -0.3408 C   0  0  0  0  0  0  0  0  0  0  0  0
   -5.7380   -1.6544   -1.1456 O   0  0  0  0  0  0  0  0  0  0  0  0
   -6.3730   -0.8913   -2.1453 C   0  0  0  0  0  0  0  0  0  0  0  0
   -4.3153   -1.8713    0.6890 C   0  0  0  0  0  0  0  0  0  0  0  0
   -3.8935   -5.6661    0.7489 O   0  0  0  0  0  0  0  0  0  0  0  0
   -4.0633   -6.7906    1.1213 C   0  0  0  0  0  0  0  0  0  0  0  0
   -3.4031   -1.3419    1.5744 C   0  0  0  0  0  0  0  0  0  0  0  0
   -2.9669   -0.0285    1.4461 C   0  0  0  0  0  0  0  0  0  0  0  0
   -2.4140    2.4031   -1.2051 C   0  0  0  0  0  0  0  0  0  0  0  0
   -1.5182    1.2582   -1.7129 C   0  0  0  0  0  0  0  0  0  0  0  0
   -0.1933    1.1982   -1.0573 C   0  0  0  0  0  0  0  0  0  0  0  0
    0.4006    0.0952   -0.6251 N   0  0  0  0  0  0  0  0  0  0  0  0
    1.7797    0.1289   -0.1968 C   0  0  0  0  0  0  0  0  0  0  0  0
    2.7300   -0.3690   -1.3032 C   0  0  0  0  0  0  0  0  0  0  0  0
    4.1600   -0.1909   -0.8750 C   0  0  0  0  0  0  0  0  0  0  0  0
    4.8070    1.0179   -1.0779 C   0  0  0  0  0  0  0  0  0  0  0  0
    6.1188    1.1997   -0.6693 C   0  0  0  0  0  0  0  0  0  0  0  0
    6.8118    0.1729   -0.0441 C   0  0  0  0  0  0  0  0  0  0  0  0
    8.0841    0.2335    0.3885 O   0  0  0  0  0  0  0  0  0  0  0  0
    8.8212    1.4191    0.1966 C   0  0  0  0  0  0  0  0  0  0  0  0
    6.1551   -1.0707    0.1725 C   0  0  0  0  0  0  0  0  0  0  0  0
    6.9023   -2.0121    0.7807 O   0  0  0  0  0  0  0  0  0  0  0  0
    6.3567   -3.2902    1.0053 C   0  0  0  0  0  0  0  0  0  0  0  0
    4.8413   -1.2273   -0.2419 C   0  0  0  0  0  0  0  0  0  0  0  0
   -0.2566   -1.1902   -0.6437 C   0  0  0  0  0  0  0  0  0  0  0  0
   -4.1737    3.1530    0.4772 C   0  0  0  0  0  0  0  0  0  0  0  0
   -4.7959    2.9177    1.8515 C   0  0  0  0  0  0  0  0  0  0  0  0
   -3.8242    4.6295    0.3150 C   0  0  0  0  0  0  0  0  0  0  0  0
   -4.7497    0.8547   -1.2767 H   0  0  0  0  0  0  0  0  0  0  0  0
   -6.8651   -0.0097   -1.7253 H   0  0  0  0  0  0  0  0  0  0  0  0
   -7.1234   -1.5461   -2.5829 H   0  0  0  0  0  0  0  0  0  0  0  0
   -5.6681   -0.5830   -2.9238 H   0  0  0  0  0  0  0  0  0  0  0  0
   -4.6557   -2.8904    0.7712 H   0  0  0  0  0  0  0  0  0  0  0  0
   -5.0557   -7.2657    1.1454 H   0  0  0  0  0  0  0  0  0  0  0  0
   -3.2373   -7.4348    1.4627 H   0  0  0  0  0  0  0  0  0  0  0  0
   -3.0272   -1.9531    2.3803 H   0  0  0  0  0  0  0  0  0  0  0  0
   -2.2744    0.3742    2.1693 H   0  0  0  0  0  0  0  0  0  0  0  0
   -3.2549    2.4990   -1.8913 H   0  0  0  0  0  0  0  0  0  0  0  0
   -1.8530    3.3380   -1.2405 H   0  0  0  0  0  0  0  0  0  0  0  0
   -2.0499    0.3122   -1.6285 H   0  0  0  0  0  0  0  0  0  0  0  0
   -1.3429    1.4493   -2.7799 H   0  0  0  0  0  0  0  0  0  0  0  0
   -0.9043    1.9046    0.8420 H   0  0  0  0  0  0  0  0  0  0  0  0
    0.4028    2.0994   -1.0570 H   0  0  0  0  0  0  0  0  0  0  0  0
    1.8948   -0.4955    0.6927 H   0  0  0  0  0  0  0  0  0  0  0  0
    2.0521    1.1530    0.0669 H   0  0  0  0  0  0  0  0  0  0  0  0
    2.5421    0.2097   -2.2096 H   0  0  0  0  0  0  0  0  0  0  0  0
    2.5275   -1.4191   -1.5157 H   0  0  0  0  0  0  0  0  0  0  0  0
    4.2940    1.8290   -1.5723 H   0  0  0  0  0  0  0  0  0  0  0  0
    6.5974    2.1482   -0.8493 H   0  0  0  0  0  0  0  0  0  0  0  0
    8.3653    2.2640    0.7217 H   0  0  0  0  0  0  0  0  0  0  0  0
    8.9224    1.6599   -0.8659 H   0  0  0  0  0  0  0  0  0  0  0  0
    9.8054    1.2220    0.6172 H   0  0  0  0  0  0  0  0  0  0  0  0
    7.1507   -3.8675    1.4752 H   0  0  0  0  0  0  0  0  0  0  0  0
    5.4951   -3.2463    1.6791 H   0  0  0  0  0  0  0  0  0  0  0  0
    6.0652   -3.7726    0.0673 H   0  0  0  0  0  0  0  0  0  0  0  0
    4.3375   -2.1687   -0.0879 H   0  0  0  0  0  0  0  0  0  0  0  0
   -0.4319   -1.5294   -1.6666 H   0  0  0  0  0  0  0  0  0  0  0  0
   -1.2149   -1.1393   -0.1214 H   0  0  0  0  0  0  0  0  0  0  0  0
    0.3696   -1.9213   -0.1397 H   0  0  0  0  0  0  0  0  0  0  0  0
   -4.9249    2.8994   -0.2798 H   0  0  0  0  0  0  0  0  0  0  0  0
   -4.0833    3.1686    2.6307 H   0  0  0  0  0  0  0  0  0  0  0  0
   -5.1023    1.8815    1.9737 H   0  0  0  0  0  0  0  0  0  0  0  0
   -5.6723    3.5497    1.9678 H   0  0  0  0  0  0  0  0  0  0  0  0
   -3.0741    4.9215    1.0433 H   0  0  0  0  0  0  0  0  0  0  0  0
   -3.4612    4.8547   -0.6843 H   0  0  0  0  0  0  0  0  0  0  0  0
   -4.7155    5.2269    0.4874 H   0  0  0  0  0  0  0  0  0  0  0  0
   -0.9793    3.3849    2.6575 H   0  0  0  0  0  0  0  0  0  0  0  0
  1  2  2  0  0  0  0
  2  3  1  0  0  0  0
  3  4  1  0  0  0  0
  4  5  4  0  0  0  0
  5  6  4  0  0  0  0
  6  7  1  0  0  0  0
  7  8  1  0  0  0  0
  6  9  4  0  0  0  0
 10 11  2  0  0  0  0
  9 12  4  0  0  0  0
  4 13  4  0  0  0  0
 12 13  4  0  0  0  0
  3 14  1  0  0  0  0
 14 15  1  0  0  0  0
 15 16  1  0  0  0  0
 16 17  4  0  0  0  0
 17 18  1  0  0  0  0
 18 19  1  0  0  0  0
 19 20  1  0  0  0  0
 20 21  4  0  0  0  0
 21 22  4  0  0  0  0
 22 23  4  0  0  0  0
 23 24  1  0  0  0  0
 24 25  1  0  0  0  0
 23 26  4  0  0  0  0
 26 27  1  0  0  0  0
 27 28  1  0  0  0  0
 20 29  4  0  0  0  0
 26 29  4  0  0  0  0
 17 30  1  0  0  0  0
  3 31  1  0  0  0  0
 31 32  1  0  0  0  0
 31 33  1  0  0  0  0
  5 34  1  0  0  0  0
  8 35  1  0  0  0  0
  8 36  1  0  0  0  0
  8 37  1  0  0  0  0
  9 38  1  0  0  0  0
 11 39  1  0  0  0  0
 11 40  1  0  0  0  0
 12 41  1  0  0  0  0
 13 42  1  0  0  0  0
 14 43  1  0  0  0  0
 14 44  1  0  0  0  0
 15 45  1  0  0  0  0
 15 46  1  0  0  0  0
  2 47  1  0  0  0  0
 16 48  1  0  0  0  0
 18 49  1  0  0  0  0
 18 50  1  0  0  0  0
 19 51  1  0  0  0  0
 19 52  1  0  0  0  0
 21 53  1  0  0  0  0
 22 54  1  0  0  0  0
 25 55  1  0  0  0  0
 25 56  1  0  0  0  0
 25 57  1  0  0  0  0
 28 58  1  0  0  0  0
 28 59  1  0  0  0  0
 28 60  1  0  0  0  0
 29 61  1  0  0  0  0
 30 62  1  0  0  0  0
 30 63  1  0  0  0  0
 30 64  1  0  0  0  0
 31 65  1  0  0  0  0
 32 66  1  0  0  0  0
 32 67  1  0  0  0  0
 32 68  1  0  0  0  0
 33 69  1  0  0  0  0
 33 70  1  0  0  0  0
 33 71  1  0  0  0  0
  1 72  1  0  0  0  0
M  CHG  1   1   1
M  END
