 xtb: 6.6.1 (8d0f1dd)
          06052419583D

 25 25  0     0  0            999 V2000
    4.6000    0.3427    0.1975 C   0  0  0  0  0  0  0  0  0  0  0  0
    3.4195   -0.3269   -0.1125 N   0  0  0  0  0  0  0  0  0  0  0  0
    2.3166   -0.6807    0.1116 C   0  0  0  0  0  0  0  0  0  0  0  0
    1.1719   -1.2656    0.0818 N   0  0  0  0  0  0  0  0  0  0  0  0
   -0.0794   -0.6526    0.0058 C   0  0  0  0  0  0  0  0  0  0  0  0
   -0.4284    0.6818   -0.1499 C   0  0  0  0  0  0  0  0  0  0  0  0
    0.4097    1.8487   -0.2902 C   0  0  0  0  0  0  0  0  0  0  0  0
    0.0137    2.9819   -0.3989 O   0  0  0  0  0  0  0  0  0  0  0  0
   -1.8060    0.7307   -0.1521 N   0  0  0  0  0  0  0  0  0  0  0  0
   -2.6499    1.8880   -0.2830 C   0  0  0  0  0  0  0  0  0  0  0  0
   -2.3245   -0.5341   -0.0060 C   0  0  0  0  0  0  0  0  0  0  0  0
   -3.4745   -0.8756    0.0360 O   0  0  0  0  0  0  0  0  0  0  0  0
   -1.2158   -1.3943    0.0942 N   0  0  0  0  0  0  0  0  0  0  0  0
   -1.3421   -2.8168    0.2634 C   0  0  0  0  0  0  0  0  0  0  0  0
    4.8507    0.2591    1.2558 H   0  0  0  0  0  0  0  0  0  0  0  0
    5.3985   -0.0833   -0.4107 H   0  0  0  0  0  0  0  0  0  0  0  0
    4.4886    1.3957   -0.0715 H   0  0  0  0  0  0  0  0  0  0  0  0
    1.4890    1.6051   -0.2945 H   0  0  0  0  0  0  0  0  0  0  0  0
   -2.4552    2.5980    0.5215 H   0  0  0  0  0  0  0  0  0  0  0  0
   -2.4691    2.3902   -1.2339 H   0  0  0  0  0  0  0  0  0  0  0  0
   -3.6812    1.5411   -0.2341 H   0  0  0  0  0  0  0  0  0  0  0  0
   -0.8895   -3.1449    1.2009 H   0  0  0  0  0  0  0  0  0  0  0  0
   -0.9063   -3.3555   -0.5802 H   0  0  0  0  0  0  0  0  0  0  0  0
   -2.4100   -3.0332    0.2989 H   0  0  0  0  0  0  0  0  0  0  0  0
    1.1340   -2.2811    0.1815 H   0  0  0  0  0  0  0  0  0  0  0  0
  1  2  1  0  0  0  0
  2  3  2  0  0  0  0
  3  4  4  0  0  0  0
  4  5  1  0  0  0  0
  5  6  4  0  0  0  0
  6  7  1  0  0  0  0
  7  8  2  0  0  0  0
  6  9  1  0  0  0  0
  9 10  1  0  0  0  0
  9 11  1  0  0  0  0
 11 12  2  0  0  0  0
  5 13  4  0  0  0  0
 11 13  1  0  0  0  0
 13 14  1  0  0  0  0
  1 15  1  0  0  0  0
  1 16  1  0  0  0  0
  1 17  1  0  0  0  0
  7 18  1  0  0  0  0
 10 19  1  0  0  0  0
 10 20  1  0  0  0  0
 10 21  1  0  0  0  0
 14 22  1  0  0  0  0
 14 23  1  0  0  0  0
 14 24  1  0  0  0  0
  4 25  1  0  0  0  0
M  CHG  1   1   1
M  END
