 xtb: 6.6.1 (8d0f1dd)
          04062411173D

 72 73  0     0  0            999 V2000
   -1.5885    3.1972    2.1020 N   0  0  0  0  0  0  0  0  0  0  0  0
   -1.5514    2.4677    1.0882 C   0  0  0  0  0  0  0  0  0  0  0  0
   -2.7422    2.1432    0.2277 C   0  0  0  0  0  0  0  0  0  0  0  0
   -3.1584    0.6967    0.4467 C   0  0  0  0  0  0  0  0  0  0  0  0
   -4.0655    0.0986   -0.4308 C   0  0  0  0  0  0  0  0  0  0  0  0
   -4.4799   -1.2115   -0.2621 C   0  0  0  0  0  0  0  0  0  0  0  0
   -5.3455   -1.8643   -1.0656 O   0  0  0  0  0  0  0  0  0  0  0  0
   -5.9499   -1.1733   -2.1332 C   0  0  0  0  0  0  0  0  0  0  0  0
   -3.9754   -1.9699    0.8285 C   0  0  0  0  0  0  0  0  0  0  0  0
   -4.4267   -3.2381    0.9097 O   0  0  0  0  0  0  0  0  0  0  0  0
   -4.0330   -4.0368    2.0005 C   0  0  0  0  0  0  0  0  0  0  0  0
   -3.0852   -1.3673    1.7023 C   0  0  0  0  0  0  0  0  0  0  0  0
   -2.6813   -0.0510    1.5119 C   0  0  0  0  0  0  0  0  0  0  0  0
   -2.2787    2.3481   -1.2381 C   0  0  0  0  0  0  0  0  0  0  0  0
   -1.3531    1.2418   -1.7809 C   0  0  0  0  0  0  0  0  0  0  0  0
    0.0448    1.3326   -1.3028 C   0  0  0  0  0  0  0  0  0  0  0  0
    0.7609    0.3404   -0.7970 N   0  0  0  0  0  0  0  0  0  0  0  0
    2.1947    0.4479   -0.6644 C   0  0  0  0  0  0  0  0  0  0  0  0
    2.9139   -0.5676   -1.5777 C   0  0  0  0  0  0  0  0  0  0  0  0
    4.3506   -0.2127   -1.7589 C   0  0  0  0  0  0  0  0  0  0  0  0
    4.8506    0.4120   -2.8721 C   0  0  0  0  0  0  0  0  0  0  0  0
    6.2509    0.5834   -2.7240 C   0  0  0  0  0  0  0  0  0  0  0  0
    6.6357    0.0550   -1.5226 C   0  0  0  0  0  0  0  0  0  0  0  0
    4.1497   -1.3628    0.8573 O   0  0  0  0  0  0  0  0  0  0  0  0
    4.0641   -2.0179    2.1162 C   0  0  0  0  0  0  0  0  0  0  0  0
    5.3700   -1.0866    0.3714 C   0  0  0  0  0  0  0  0  0  0  0  0
    6.3306   -1.4792    1.2049 O   0  0  0  0  0  0  0  0  0  0  0  0
    7.7090   -1.4381    0.8956 C   0  0  0  0  0  0  0  0  0  0  0  0
    5.4646   -0.4682   -0.8573 C   0  0  0  0  0  0  0  0  0  0  0  0
    0.1761   -0.9243   -0.4230 C   0  0  0  0  0  0  0  0  0  0  0  0
   -3.9777    3.0473    0.5214 C   0  0  0  0  0  0  0  0  0  0  0  0
   -4.5459    2.7893    1.9150 C   0  0  0  0  0  0  0  0  0  0  0  0
   -3.6839    4.5353    0.3539 C   0  0  0  0  0  0  0  0  0  0  0  0
   -4.4621    0.6719   -1.2519 H   0  0  0  0  0  0  0  0  0  0  0  0
   -6.5249   -0.3120   -1.7802 H   0  0  0  0  0  0  0  0  0  0  0  0
   -6.6243   -1.8890   -2.5991 H   0  0  0  0  0  0  0  0  0  0  0  0
   -5.2099   -0.8437   -2.8700 H   0  0  0  0  0  0  0  0  0  0  0  0
   -4.3376   -3.5929    2.9529 H   0  0  0  0  0  0  0  0  0  0  0  0
   -4.5449   -4.9876    1.8656 H   0  0  0  0  0  0  0  0  0  0  0  0
   -2.9513   -4.2057    2.0049 H   0  0  0  0  0  0  0  0  0  0  0  0
   -2.7017   -1.9119    2.5498 H   0  0  0  0  0  0  0  0  0  0  0  0
   -2.0077    0.3937    2.2281 H   0  0  0  0  0  0  0  0  0  0  0  0
   -3.1581    2.3982   -1.8789 H   0  0  0  0  0  0  0  0  0  0  0  0
   -1.7649    3.3072   -1.3137 H   0  0  0  0  0  0  0  0  0  0  0  0
   -1.7869    0.2640   -1.5802 H   0  0  0  0  0  0  0  0  0  0  0  0
   -1.3180    1.3755   -2.8697 H   0  0  0  0  0  0  0  0  0  0  0  0
   -0.6227    2.0146    0.6933 H   0  0  0  0  0  0  0  0  0  0  0  0
    0.5763    2.2501   -1.5112 H   0  0  0  0  0  0  0  0  0  0  0  0
    2.4846    0.2647    0.3731 H   0  0  0  0  0  0  0  0  0  0  0  0
    2.5056    1.4562   -0.9425 H   0  0  0  0  0  0  0  0  0  0  0  0
    2.4332   -0.5459   -2.5586 H   0  0  0  0  0  0  0  0  0  0  0  0
    2.8188   -1.5702   -1.1617 H   0  0  0  0  0  0  0  0  0  0  0  0
    4.2792    0.7145   -3.7308 H   0  0  0  0  0  0  0  0  0  0  0  0
    6.8977    1.0504   -3.4416 H   0  0  0  0  0  0  0  0  0  0  0  0
    4.5163   -1.4120    2.9035 H   0  0  0  0  0  0  0  0  0  0  0  0
    4.5577   -2.9906    2.0886 H   0  0  0  0  0  0  0  0  0  0  0  0
    3.0012   -2.1459    2.3093 H   0  0  0  0  0  0  0  0  0  0  0  0
    8.1925   -2.0204    1.6796 H   0  0  0  0  0  0  0  0  0  0  0  0
    7.9095   -1.8899   -0.0771 H   0  0  0  0  0  0  0  0  0  0  0  0
    8.0846   -0.4137    0.9264 H   0  0  0  0  0  0  0  0  0  0  0  0
    7.6319    0.0693   -1.1397 H   0  0  0  0  0  0  0  0  0  0  0  0
   -0.0011   -1.5549   -1.2972 H   0  0  0  0  0  0  0  0  0  0  0  0
   -0.7712   -0.7700    0.0975 H   0  0  0  0  0  0  0  0  0  0  0  0
    0.8607   -1.4432    0.2438 H   0  0  0  0  0  0  0  0  0  0  0  0
   -4.7444    2.7677   -0.2105 H   0  0  0  0  0  0  0  0  0  0  0  0
   -3.8121    3.0517    2.6700 H   0  0  0  0  0  0  0  0  0  0  0  0
   -4.8253    1.7461    2.0399 H   0  0  0  0  0  0  0  0  0  0  0  0
   -5.4320    3.4006    2.0646 H   0  0  0  0  0  0  0  0  0  0  0  0
   -2.9173    4.8498    1.0554 H   0  0  0  0  0  0  0  0  0  0  0  0
   -3.3657    4.7764   -0.6570 H   0  0  0  0  0  0  0  0  0  0  0  0
   -4.5872    5.1026    0.5624 H   0  0  0  0  0  0  0  0  0  0  0  0
   -0.7161    3.3715    2.5913 H   0  0  0  0  0  0  0  0  0  0  0  0
  1  2  2  0  0  0  0
  2  3  1  0  0  0  0
  3  4  1  0  0  0  0
  4  5  4  0  0  0  0
  5  6  4  0  0  0  0
  6  7  1  0  0  0  0
  7  8  1  0  0  0  0
  6  9  4  0  0  0  0
  9 10  1  0  0  0  0
 10 11  1  0  0  0  0
  9 12  4  0  0  0  0
  4 13  4  0  0  0  0
 12 13  4  0  0  0  0
  3 14  1  0  0  0  0
 14 15  1  0  0  0  0
 15 16  1  0  0  0  0
 16 17  4  0  0  0  0
 17 18  1  0  0  0  0
 18 19  1  0  0  0  0
 19 20  1  0  0  0  0
 20 21  2  0  0  0  0
 21 22  4  0  0  0  0
 22 23  2  0  0  0  0
 24 25  1  0  0  0  0
 24 26  1  0  0  0  0
 26 27  1  0  0  0  0
 27 28  1  0  0  0  0
 20 29  1  0  0  0  0
 23 29  1  0  0  0  0
 26 29  4  0  0  0  0
 17 30  1  0  0  0  0
  3 31  1  0  0  0  0
 31 32  1  0  0  0  0
 31 33  1  0  0  0  0
  5 34  1  0  0  0  0
  8 35  1  0  0  0  0
  8 36  1  0  0  0  0
  8 37  1  0  0  0  0
 11 38  1  0  0  0  0
 11 39  1  0  0  0  0
 11 40  1  0  0  0  0
 12 41  1  0  0  0  0
 13 42  1  0  0  0  0
 14 43  1  0  0  0  0
 14 44  1  0  0  0  0
 15 45  1  0  0  0  0
 15 46  1  0  0  0  0
  2 47  1  0  0  0  0
 16 48  1  0  0  0  0
 18 49  1  0  0  0  0
 18 50  1  0  0  0  0
 19 51  1  0  0  0  0
 19 52  1  0  0  0  0
 21 53  1  0  0  0  0
 22 54  1  0  0  0  0
 25 55  1  0  0  0  0
 25 56  1  0  0  0  0
 25 57  1  0  0  0  0
 28 58  1  0  0  0  0
 28 59  1  0  0  0  0
 28 60  1  0  0  0  0
 23 61  1  0  0  0  0
 30 62  1  0  0  0  0
 30 63  1  0  0  0  0
 30 64  1  0  0  0  0
 31 65  1  0  0  0  0
 32 66  1  0  0  0  0
 32 67  1  0  0  0  0
 32 68  1  0  0  0  0
 33 69  1  0  0  0  0
 33 70  1  0  0  0  0
 33 71  1  0  0  0  0
  1 72  1  0  0  0  0
M  CHG  1   1   1
M  END
