 xtb: 6.6.1 (8d0f1dd)
          06052419593D

 25 26  0     0  0            999 V2000
    3.2419    0.9863    0.0446 C   0  0  0  0  0  0  0  0  0  0  0  0
    3.4069   -0.3648    0.0225 N   0  0  0  0  0  0  0  0  0  0  0  0
    2.6672   -1.3697   -0.0016 C   0  0  0  0  0  0  0  0  0  0  0  0
    1.2849   -1.5286   -0.0153 N   0  0  0  0  0  0  0  0  0  0  0  0
    0.1853   -0.7197   -0.0061 C   0  0  0  0  0  0  0  0  0  0  0  0
   -0.0421    0.6783   -0.0153 C   0  0  0  0  0  0  0  0  0  0  0  0
    0.7748    1.7857   -0.0264 C   0  0  0  0  0  0  0  0  0  0  0  0
    0.7382    2.9674   -0.0392 O   0  0  0  0  0  0  0  0  0  0  0  0
   -1.4369    0.8625   -0.0101 N   0  0  0  0  0  0  0  0  0  0  0  0
   -2.1717    2.1006   -0.0117 C   0  0  0  0  0  0  0  0  0  0  0  0
   -2.0645   -0.3484   -0.0006 C   0  0  0  0  0  0  0  0  0  0  0  0
   -3.2368   -0.5853    0.0079 O   0  0  0  0  0  0  0  0  0  0  0  0
   -1.0321   -1.3126   -0.0013 N   0  0  0  0  0  0  0  0  0  0  0  0
   -1.3418   -2.7189    0.0036 C   0  0  0  0  0  0  0  0  0  0  0  0
    3.6608    1.4200    0.9560 H   0  0  0  0  0  0  0  0  0  0  0  0
    3.7049    1.4533   -0.8285 H   0  0  0  0  0  0  0  0  0  0  0  0
    2.1054    1.3238    0.0203 H   0  0  0  0  0  0  0  0  0  0  0  0
    3.1719   -2.3276   -0.0149 H   0  0  0  0  0  0  0  0  0  0  0  0
   -1.4959    2.9508    0.0205 H   0  0  0  0  0  0  0  0  0  0  0  0
   -2.7854    2.1596   -0.9121 H   0  0  0  0  0  0  0  0  0  0  0  0
   -2.8334    2.1281    0.8552 H   0  0  0  0  0  0  0  0  0  0  0  0
   -0.9530   -3.2097    0.8974 H   0  0  0  0  0  0  0  0  0  0  0  0
   -0.9709   -3.2126   -0.8963 H   0  0  0  0  0  0  0  0  0  0  0  0
   -2.4305   -2.7937    0.0139 H   0  0  0  0  0  0  0  0  0  0  0  0
    1.0136   -2.5067   -0.0314 H   0  0  0  0  0  0  0  0  0  0  0  0
  1  2  1  0  0  0  0
  2  3  2  0  0  0  0
  3  4  1  0  0  0  0
  4  5  1  0  0  0  0
  5  6  4  0  0  0  0
  6  7  4  0  0  0  0
  7  8  2  0  0  0  0
  6  9  1  0  0  0  0
  9 10  1  0  0  0  0
  9 11  1  0  0  0  0
 11 12  2  0  0  0  0
  5 13  4  0  0  0  0
 11 13  1  0  0  0  0
 13 14  1  0  0  0  0
  1 15  1  0  0  0  0
  1 16  1  0  0  0  0
  1 17  1  0  0  0  0
  7 17  1  0  0  0  0
  3 18  1  0  0  0  0
 10 19  1  0  0  0  0
 10 20  1  0  0  0  0
 10 21  1  0  0  0  0
 14 22  1  0  0  0  0
 14 23  1  0  0  0  0
 14 24  1  0  0  0  0
  4 25  1  0  0  0  0
M  CHG  1   1   1
M  END
