 xtb: 6.6.1 (8d0f1dd)
          06052420003D

 25 25  0     0  0            999 V2000
    3.0100    0.3819    0.2825 C   0  0  0  0  0  0  0  0  0  0  0  0
    1.9278   -0.3131   -0.0648 N   0  0  0  0  0  0  0  0  0  0  0  0
    4.2226    0.2180   -0.2882 C   0  0  0  0  0  0  0  0  0  0  0  0
    0.7117   -2.7513    0.1506 N   0  0  0  0  0  0  0  0  0  0  0  0
   -0.4615   -0.8377    0.0120 C   0  0  0  0  0  0  0  0  0  0  0  0
    0.6775    0.0282   -0.0158 C   0  0  0  0  0  0  0  0  0  0  0  0
    0.1393    1.3727   -0.0723 C   0  0  0  0  0  0  0  0  0  0  0  0
    0.7881    2.5088   -0.1838 O   0  0  0  0  0  0  0  0  0  0  0  0
   -1.1905    1.3350   -0.0429 N   0  0  0  0  0  0  0  0  0  0  0  0
   -2.0790    2.4651   -0.0908 C   0  0  0  0  0  0  0  0  0  0  0  0
   -1.6563   -0.0105    0.0242 C   0  0  0  0  0  0  0  0  0  0  0  0
   -2.8289   -0.2850    0.0952 O   0  0  0  0  0  0  0  0  0  0  0  0
   -0.4101   -2.1862    0.1002 N   0  0  0  0  0  0  0  0  0  0  0  0
   -1.6523   -2.9389    0.1084 C   0  0  0  0  0  0  0  0  0  0  0  0
    2.9209    1.0570    1.1411 H   0  0  0  0  0  0  0  0  0  0  0  0
    5.0709    0.7740    0.0775 H   0  0  0  0  0  0  0  0  0  0  0  0
    1.7495    2.3897   -0.2605 H   0  0  0  0  0  0  0  0  0  0  0  0
    4.3784   -0.4409   -1.1258 H   0  0  0  0  0  0  0  0  0  0  0  0
   -1.5785    3.3378    0.3229 H   0  0  0  0  0  0  0  0  0  0  0  0
   -2.3726    2.6714   -1.1216 H   0  0  0  0  0  0  0  0  0  0  0  0
   -2.9724    2.2226    0.4833 H   0  0  0  0  0  0  0  0  0  0  0  0
   -1.5437   -3.8182    0.7435 H   0  0  0  0  0  0  0  0  0  0  0  0
   -1.8800   -3.2692   -0.9078 H   0  0  0  0  0  0  0  0  0  0  0  0
   -2.4807   -2.3261    0.4589 H   0  0  0  0  0  0  0  0  0  0  0  0
    0.6703   -3.7669    0.2050 H   0  0  0  0  0  0  0  0  0  0  0  0
  1  2  4  0  0  0  0
  1  3  2  0  0  0  0
  2  6  4  0  0  0  0
  5  6  1  0  0  0  0
  6  7  1  0  0  0  0
  7  8  4  0  0  0  0
  7  9  4  0  0  0  0
  9 10  1  0  0  0  0
  5 11  1  0  0  0  0
  9 11  1  0  0  0  0
 11 12  2  0  0  0  0
  4 13  2  0  0  0  0
  5 13  4  0  0  0  0
 13 14  1  0  0  0  0
  1 15  1  0  0  0  0
  3 16  1  0  0  0  0
  8 17  1  0  0  0  0
  3 18  1  0  0  0  0
 10 19  1  0  0  0  0
 10 20  1  0  0  0  0
 10 21  1  0  0  0  0
 14 22  1  0  0  0  0
 14 23  1  0  0  0  0
 14 24  1  0  0  0  0
  4 25  1  0  0  0  0
M  CHG  1   1   1
M  END
