 xtb: 6.6.1 (8d0f1dd)
          04062411163D

 72 73  0     0  0            999 V2000
   -1.6344    2.7899    2.0859 N   0  0  0  0  0  0  0  0  0  0  0  0
   -1.7389    1.9369    1.1767 C   0  0  0  0  0  0  0  0  0  0  0  0
   -2.9528    1.8101    0.2972 C   0  0  0  0  0  0  0  0  0  0  0  0
   -3.4848    0.3916    0.3521 C   0  0  0  0  0  0  0  0  0  0  0  0
   -4.3986   -0.0559   -0.6016 C   0  0  0  0  0  0  0  0  0  0  0  0
   -4.9219   -1.3388   -0.5564 C   0  0  0  0  0  0  0  0  0  0  0  0
   -5.8108   -1.8499   -1.4287 O   0  0  0  0  0  0  0  0  0  0  0  0
   -6.3403   -1.0288   -2.4432 C   0  0  0  0  0  0  0  0  0  0  0  0
   -4.5152   -2.2259    0.4802 C   0  0  0  0  0  0  0  0  0  0  0  0
   -5.0627   -3.4532    0.4384 O   0  0  0  0  0  0  0  0  0  0  0  0
   -4.7462   -4.3845    1.4474 C   0  0  0  0  0  0  0  0  0  0  0  0
   -3.6173   -1.7677    1.4332 C   0  0  0  0  0  0  0  0  0  0  0  0
   -3.1158   -0.4761    1.3720 C   0  0  0  0  0  0  0  0  0  0  0  0
   -2.4058    2.1266   -1.1569 C   0  0  0  0  0  0  0  0  0  0  0  0
   -1.5911    1.0484   -1.7230 C   0  0  0  0  0  0  0  0  0  0  0  0
   -0.1159    1.0205   -1.6384 C   0  0  0  0  0  0  0  0  0  0  0  0
    0.3870    0.1843   -0.5375 N   0  0  0  0  0  0  0  0  0  0  0  0
    1.7943    0.3382   -0.2645 C   0  0  0  0  0  0  0  0  0  0  0  0
    2.7495   -0.1811   -1.3653 C   0  0  0  0  0  0  0  0  0  0  0  0
    4.1719   -0.0155   -0.9285 C   0  0  0  0  0  0  0  0  0  0  0  0
    4.8471    1.1781   -1.1511 C   0  0  0  0  0  0  0  0  0  0  0  0
    6.1548    1.3459   -0.7280 C   0  0  0  0  0  0  0  0  0  0  0  0
    6.8207    0.3215   -0.0662 C   0  0  0  0  0  0  0  0  0  0  0  0
    8.0851    0.3692    0.3840 O   0  0  0  0  0  0  0  0  0  0  0  0
    8.8501    1.5348    0.1786 C   0  0  0  0  0  0  0  0  0  0  0  0
    6.1360   -0.9056    0.1720 C   0  0  0  0  0  0  0  0  0  0  0  0
    6.8539   -1.8445    0.8138 O   0  0  0  0  0  0  0  0  0  0  0  0
    6.2755   -3.1018    1.0740 C   0  0  0  0  0  0  0  0  0  0  0  0
    4.8255   -1.0470   -0.2595 C   0  0  0  0  0  0  0  0  0  0  0  0
   -0.0861   -1.1796   -0.5782 C   0  0  0  0  0  0  0  0  0  0  0  0
   -4.1059    2.7864    0.6509 C   0  0  0  0  0  0  0  0  0  0  0  0
   -4.6342    2.5183    2.0593 C   0  0  0  0  0  0  0  0  0  0  0  0
   -3.7226    4.2567    0.5145 C   0  0  0  0  0  0  0  0  0  0  0  0
   -4.7115    0.6100   -1.3889 H   0  0  0  0  0  0  0  0  0  0  0  0
   -6.8509   -0.1557   -2.0259 H   0  0  0  0  0  0  0  0  0  0  0  0
   -7.0615   -1.6484   -2.9726 H   0  0  0  0  0  0  0  0  0  0  0  0
   -5.5644   -0.7014   -3.1425 H   0  0  0  0  0  0  0  0  0  0  0  0
   -5.0368   -4.0180    2.4362 H   0  0  0  0  0  0  0  0  0  0  0  0
   -5.3204   -5.2781    1.2105 H   0  0  0  0  0  0  0  0  0  0  0  0
   -3.6792   -4.6281    1.4466 H   0  0  0  0  0  0  0  0  0  0  0  0
   -3.3058   -2.4106    2.2401 H   0  0  0  0  0  0  0  0  0  0  0  0
   -2.4405   -0.1460    2.1456 H   0  0  0  0  0  0  0  0  0  0  0  0
   -3.2799    2.3088   -1.7848 H   0  0  0  0  0  0  0  0  0  0  0  0
   -1.8250    3.0469   -1.0823 H   0  0  0  0  0  0  0  0  0  0  0  0
   -2.0886    0.2089   -2.1791 H   0  0  0  0  0  0  0  0  0  0  0  0
    0.2840    0.6385   -2.5932 H   0  0  0  0  0  0  0  0  0  0  0  0
   -0.9421    1.2326    0.8978 H   0  0  0  0  0  0  0  0  0  0  0  0
    0.2728    2.0285   -1.4673 H   0  0  0  0  0  0  0  0  0  0  0  0
    2.0101   -0.1962    0.6652 H   0  0  0  0  0  0  0  0  0  0  0  0
    1.9949    1.4001   -0.0970 H   0  0  0  0  0  0  0  0  0  0  0  0
    2.5777    0.3842   -2.2824 H   0  0  0  0  0  0  0  0  0  0  0  0
    2.5367   -1.2340   -1.5543 H   0  0  0  0  0  0  0  0  0  0  0  0
    4.3539    1.9857   -1.6700 H   0  0  0  0  0  0  0  0  0  0  0  0
    6.6540    2.2811   -0.9221 H   0  0  0  0  0  0  0  0  0  0  0  0
    8.4037    2.3996    0.6785 H   0  0  0  0  0  0  0  0  0  0  0  0
    8.9715    1.7505   -0.8870 H   0  0  0  0  0  0  0  0  0  0  0  0
    9.8235    1.3262    0.6182 H   0  0  0  0  0  0  0  0  0  0  0  0
    7.0490   -3.6812    1.5744 H   0  0  0  0  0  0  0  0  0  0  0  0
    5.4060   -3.0140    1.7329 H   0  0  0  0  0  0  0  0  0  0  0  0
    5.9849   -3.6085    0.1487 H   0  0  0  0  0  0  0  0  0  0  0  0
    4.2999   -1.9735   -0.0890 H   0  0  0  0  0  0  0  0  0  0  0  0
    0.1606   -1.6886   -1.5183 H   0  0  0  0  0  0  0  0  0  0  0  0
   -1.1702   -1.1813   -0.4607 H   0  0  0  0  0  0  0  0  0  0  0  0
    0.3531   -1.7355    0.2480 H   0  0  0  0  0  0  0  0  0  0  0  0
   -4.9181    2.5779   -0.0559 H   0  0  0  0  0  0  0  0  0  0  0  0
   -3.8672    2.7454    2.7935 H   0  0  0  0  0  0  0  0  0  0  0  0
   -4.9394    1.4809    2.1742 H   0  0  0  0  0  0  0  0  0  0  0  0
   -5.4955    3.1524    2.2523 H   0  0  0  0  0  0  0  0  0  0  0  0
   -2.8824    4.4863    1.1628 H   0  0  0  0  0  0  0  0  0  0  0  0
   -3.4696    4.5174   -0.5098 H   0  0  0  0  0  0  0  0  0  0  0  0
   -4.5647    4.8747    0.8156 H   0  0  0  0  0  0  0  0  0  0  0  0
   -0.7662    2.8253    2.6099 H   0  0  0  0  0  0  0  0  0  0  0  0
  1  2  2  0  0  0  0
  2  3  1  0  0  0  0
  3  4  1  0  0  0  0
  4  5  4  0  0  0  0
  5  6  4  0  0  0  0
  6  7  1  0  0  0  0
  7  8  1  0  0  0  0
  6  9  4  0  0  0  0
  9 10  1  0  0  0  0
 10 11  1  0  0  0  0
  9 12  4  0  0  0  0
  4 13  4  0  0  0  0
 12 13  4  0  0  0  0
  3 14  1  0  0  0  0
 14 15  1  0  0  0  0
 15 16  1  0  0  0  0
 16 17  1  0  0  0  0
 17 18  1  0  0  0  0
 18 19  1  0  0  0  0
 19 20  1  0  0  0  0
 20 21  4  0  0  0  0
 21 22  4  0  0  0  0
 22 23  4  0  0  0  0
 23 24  1  0  0  0  0
 24 25  1  0  0  0  0
 23 26  4  0  0  0  0
 26 27  1  0  0  0  0
 27 28  1  0  0  0  0
 20 29  4  0  0  0  0
 26 29  4  0  0  0  0
 17 30  1  0  0  0  0
  3 31  1  0  0  0  0
 31 32  1  0  0  0  0
 31 33  1  0  0  0  0
  5 34  1  0  0  0  0
  8 35  1  0  0  0  0
  8 36  1  0  0  0  0
  8 37  1  0  0  0  0
 11 38  1  0  0  0  0
 11 39  1  0  0  0  0
 11 40  1  0  0  0  0
 12 41  1  0  0  0  0
 13 42  1  0  0  0  0
 14 43  1  0  0  0  0
 14 44  1  0  0  0  0
 15 45  1  0  0  0  0
 16 46  1  0  0  0  0
  2 47  1  0  0  0  0
 16 48  1  0  0  0  0
 18 49  1  0  0  0  0
 18 50  1  0  0  0  0
 19 51  1  0  0  0  0
 19 52  1  0  0  0  0
 21 53  1  0  0  0  0
 22 54  1  0  0  0  0
 25 55  1  0  0  0  0
 25 56  1  0  0  0  0
 25 57  1  0  0  0  0
 28 58  1  0  0  0  0
 28 59  1  0  0  0  0
 28 60  1  0  0  0  0
 29 61  1  0  0  0  0
 30 62  1  0  0  0  0
 30 63  1  0  0  0  0
 30 64  1  0  0  0  0
 31 65  1  0  0  0  0
 32 66  1  0  0  0  0
 32 67  1  0  0  0  0
 32 68  1  0  0  0  0
 33 69  1  0  0  0  0
 33 70  1  0  0  0  0
 33 71  1  0  0  0  0
  1 72  1  0  0  0  0
M  CHG  1   1   1
M  END
