 xtb: 6.6.1 (8d0f1dd)
          04062411153D

 72 73  0     0  0            999 V2000
   -1.4702    3.0624    1.8838 N   0  0  0  0  0  0  0  0  0  0  0  0
   -2.4992    2.3741    1.7091 C   0  0  0  0  0  0  0  0  0  0  0  0
   -3.2244    1.9989    0.4324 C   0  0  0  0  0  0  0  0  0  0  0  0
   -3.6890    0.5551    0.4674 C   0  0  0  0  0  0  0  0  0  0  0  0
   -4.5803    0.0918   -0.5034 C   0  0  0  0  0  0  0  0  0  0  0  0
   -5.0163   -1.2227   -0.5234 C   0  0  0  0  0  0  0  0  0  0  0  0
   -5.8761   -1.7467   -1.4182 O   0  0  0  0  0  0  0  0  0  0  0  0
   -6.4360   -0.9202   -2.4113 C   0  0  0  0  0  0  0  0  0  0  0  0
   -4.5424   -2.1321    0.4628 C   0  0  0  0  0  0  0  0  0  0  0  0
   -5.0231   -3.3851    0.3738 O   0  0  0  0  0  0  0  0  0  0  0  0
   -4.6423   -4.3392    1.3381 C   0  0  0  0  0  0  0  0  0  0  0  0
   -3.6418   -1.6712    1.4103 C   0  0  0  0  0  0  0  0  0  0  0  0
   -3.2198   -0.3491    1.4097 C   0  0  0  0  0  0  0  0  0  0  0  0
   -2.4122    2.2534   -0.8575 C   0  0  0  0  0  0  0  0  0  0  0  0
   -1.4598    1.1222   -1.2603 C   0  0  0  0  0  0  0  0  0  0  0  0
   -0.3011    0.9118   -0.2832 C   0  0  0  0  0  0  0  0  0  0  0  0
    0.6079   -0.1104   -0.7450 N   0  0  0  0  0  0  0  0  0  0  0  0
    1.9724   -0.0324   -0.2805 C   0  0  0  0  0  0  0  0  0  0  0  0
    2.9572   -0.3934   -1.4109 C   0  0  0  0  0  0  0  0  0  0  0  0
    4.3724   -0.1755   -0.9662 C   0  0  0  0  0  0  0  0  0  0  0  0
    5.0004    1.0459   -1.1746 C   0  0  0  0  0  0  0  0  0  0  0  0
    6.3004    1.2616   -0.7489 C   0  0  0  0  0  0  0  0  0  0  0  0
    7.0055    0.2585   -0.0953 C   0  0  0  0  0  0  0  0  0  0  0  0
    8.2668    0.3525    0.3573 O   0  0  0  0  0  0  0  0  0  0  0  0
    8.9818    1.5524    0.1698 C   0  0  0  0  0  0  0  0  0  0  0  0
    6.3690   -0.9963    0.1311 C   0  0  0  0  0  0  0  0  0  0  0  0
    7.1216   -1.9100    0.7697 O   0  0  0  0  0  0  0  0  0  0  0  0
    6.5892   -3.1870    1.0319 C   0  0  0  0  0  0  0  0  0  0  0  0
    5.0663   -1.1865   -0.3071 C   0  0  0  0  0  0  0  0  0  0  0  0
    0.0473   -1.4384   -0.7860 C   0  0  0  0  0  0  0  0  0  0  0  0
   -4.4960    2.9574    0.4769 C   0  0  0  0  0  0  0  0  0  0  0  0
   -5.3209    2.6629    1.6492 C   0  0  0  0  0  0  0  0  0  0  0  0
   -4.1339    4.4381    0.3916 C   0  0  0  0  0  0  0  0  0  0  0  0
   -4.9385    0.7690   -1.2618 H   0  0  0  0  0  0  0  0  0  0  0  0
   -7.0144   -0.1012   -1.9727 H   0  0  0  0  0  0  0  0  0  0  0  0
   -7.1017   -1.5632   -2.9836 H   0  0  0  0  0  0  0  0  0  0  0  0
   -5.6679   -0.5134   -3.0767 H   0  0  0  0  0  0  0  0  0  0  0  0
   -4.9217   -4.0227    2.3473 H   0  0  0  0  0  0  0  0  0  0  0  0
   -5.1854   -5.2466    1.0813 H   0  0  0  0  0  0  0  0  0  0  0  0
   -3.5668   -4.5383    1.3015 H   0  0  0  0  0  0  0  0  0  0  0  0
   -3.2597   -2.3381    2.1660 H   0  0  0  0  0  0  0  0  0  0  0  0
   -2.5130   -0.0417    2.1645 H   0  0  0  0  0  0  0  0  0  0  0  0
   -3.1124    2.3939   -1.6835 H   0  0  0  0  0  0  0  0  0  0  0  0
   -1.8459    3.1821   -0.7586 H   0  0  0  0  0  0  0  0  0  0  0  0
   -2.0288    0.1981   -1.3569 H   0  0  0  0  0  0  0  0  0  0  0  0
   -1.0377    1.3603   -2.2386 H   0  0  0  0  0  0  0  0  0  0  0  0
   -0.7018    0.6550    0.7103 H   0  0  0  0  0  0  0  0  0  0  0  0
    0.2610    1.8438   -0.1928 H   0  0  0  0  0  0  0  0  0  0  0  0
    2.1458   -0.6985    0.5769 H   0  0  0  0  0  0  0  0  0  0  0  0
    2.1832    0.9884    0.0436 H   0  0  0  0  0  0  0  0  0  0  0  0
    2.7330    0.2388   -2.2704 H   0  0  0  0  0  0  0  0  0  0  0  0
    2.8136   -1.4333   -1.7048 H   0  0  0  0  0  0  0  0  0  0  0  0
    4.4749    1.8381   -1.6851 H   0  0  0  0  0  0  0  0  0  0  0  0
    6.7626    2.2174   -0.9343 H   0  0  0  0  0  0  0  0  0  0  0  0
    8.4939    2.3917    0.6743 H   0  0  0  0  0  0  0  0  0  0  0  0
    9.1021    1.7840   -0.8927 H   0  0  0  0  0  0  0  0  0  0  0  0
    9.9600    1.3822    0.6155 H   0  0  0  0  0  0  0  0  0  0  0  0
    7.3780   -3.7321    1.5467 H   0  0  0  0  0  0  0  0  0  0  0  0
    5.7081   -3.1284    1.6784 H   0  0  0  0  0  0  0  0  0  0  0  0
    6.3311   -3.7110    0.1066 H   0  0  0  0  0  0  0  0  0  0  0  0
    4.5790   -2.1357   -0.1481 H   0  0  0  0  0  0  0  0  0  0  0  0
   -0.6419   -1.5285   -1.6252 H   0  0  0  0  0  0  0  0  0  0  0  0
   -0.5000   -1.6764    0.1361 H   0  0  0  0  0  0  0  0  0  0  0  0
    0.8387   -2.1701   -0.9202 H   0  0  0  0  0  0  0  0  0  0  0  0
   -5.0704    2.6921   -0.4232 H   0  0  0  0  0  0  0  0  0  0  0  0
   -5.5626    3.4280    2.3608 H   0  0  0  0  0  0  0  0  0  0  0  0
   -3.0225    2.0597    2.6049 H   0  0  0  0  0  0  0  0  0  0  0  0
   -5.6927    1.6692    1.8155 H   0  0  0  0  0  0  0  0  0  0  0  0
   -3.4853    4.7308    1.2136 H   0  0  0  0  0  0  0  0  0  0  0  0
   -3.6407    4.6749   -0.5469 H   0  0  0  0  0  0  0  0  0  0  0  0
   -5.0423    5.0323    0.4493 H   0  0  0  0  0  0  0  0  0  0  0  0
   -0.9780    3.4109    1.0615 H   0  0  0  0  0  0  0  0  0  0  0  0
  1  2  2  0  0  0  0
  2  3  1  0  0  0  0
  3  4  1  0  0  0  0
  4  5  4  0  0  0  0
  5  6  4  0  0  0  0
  6  7  1  0  0  0  0
  7  8  1  0  0  0  0
  6  9  4  0  0  0  0
  9 10  1  0  0  0  0
 10 11  1  0  0  0  0
  9 12  4  0  0  0  0
  4 13  4  0  0  0  0
 12 13  4  0  0  0  0
  3 14  1  0  0  0  0
 14 15  1  0  0  0  0
 15 16  1  0  0  0  0
 16 17  1  0  0  0  0
 17 18  1  0  0  0  0
 18 19  1  0  0  0  0
 19 20  1  0  0  0  0
 20 21  4  0  0  0  0
 21 22  4  0  0  0  0
 22 23  4  0  0  0  0
 23 24  1  0  0  0  0
 24 25  1  0  0  0  0
 23 26  4  0  0  0  0
 26 27  1  0  0  0  0
 27 28  1  0  0  0  0
 20 29  4  0  0  0  0
 26 29  4  0  0  0  0
 17 30  1  0  0  0  0
  3 31  1  0  0  0  0
 31 32  1  0  0  0  0
 31 33  1  0  0  0  0
  5 34  1  0  0  0  0
  8 35  1  0  0  0  0
  8 36  1  0  0  0  0
  8 37  1  0  0  0  0
 11 38  1  0  0  0  0
 11 39  1  0  0  0  0
 11 40  1  0  0  0  0
 12 41  1  0  0  0  0
 13 42  1  0  0  0  0
 14 43  1  0  0  0  0
 14 44  1  0  0  0  0
 15 45  1  0  0  0  0
 15 46  1  0  0  0  0
 16 47  1  0  0  0  0
 16 48  1  0  0  0  0
 18 49  1  0  0  0  0
 18 50  1  0  0  0  0
 19 51  1  0  0  0  0
 19 52  1  0  0  0  0
 21 53  1  0  0  0  0
 22 54  1  0  0  0  0
 25 55  1  0  0  0  0
 25 56  1  0  0  0  0
 25 57  1  0  0  0  0
 28 58  1  0  0  0  0
 28 59  1  0  0  0  0
 28 60  1  0  0  0  0
 29 61  1  0  0  0  0
 30 62  1  0  0  0  0
 30 63  1  0  0  0  0
 30 64  1  0  0  0  0
 31 65  1  0  0  0  0
 32 66  1  0  0  0  0
  2 67  1  0  0  0  0
 32 68  1  0  0  0  0
 33 69  1  0  0  0  0
 33 70  1  0  0  0  0
 33 71  1  0  0  0  0
  1 72  1  0  0  0  0
M  CHG  1   1   1
M  END
