          21
 
C              3.42384339        0.37291423        0.01435221
N              2.19744208       -0.37671973       -0.00404777
C              2.07172121       -1.70367891       -0.01263080
N              0.76764114       -2.04761589       -0.00928330
C              0.02015043       -0.89952756        0.00283694
C              0.93848095        0.16204864        0.00609163
C              0.46147047        1.52384064       -0.00264515
O              1.16599310        2.51792399       -0.01995791
N             -0.92385023        1.57844292        0.00671156
C             -1.55388912        2.87939649        0.00202868
C             -1.81554897        0.46520126        0.01609745
O             -3.00218542        0.68123602        0.02844398
N             -1.28366932       -0.78261215        0.00947277
H              3.92023466        0.26588832        0.98088671
H              4.09722167        0.01928917       -0.76625538
H              3.19324685        1.42628017       -0.14699625
H              2.88748881       -2.39975135       -0.02194296
H             -0.77505802        3.64151597        0.00957483
H             -2.18150433        2.98710120       -0.88578037
H             -2.19856032        2.98414312        0.87783981
H              0.38789133       -2.98336688       -0.01643858
