 xtb: 6.6.1 (8d0f1dd)
          06052420003D

 25 25  0     0  0            999 V2000
    3.1800    1.0975    0.0026 C   0  0  0  0  0  0  0  0  0  0  0  0
    2.3794   -0.0947   -0.0408 N   0  0  0  0  0  0  0  0  0  0  0  0
    2.7949   -1.3396   -0.2573 C   0  0  0  0  0  0  0  0  0  0  0  0
    1.7525   -2.2091   -0.1842 N   0  0  0  0  0  0  0  0  0  0  0  0
    0.6430   -1.4827    0.0892 C   0  0  0  0  0  0  0  0  0  0  0  0
    1.0272   -0.1437    0.1833 C   0  0  0  0  0  0  0  0  0  0  0  0
   -0.1407    0.6618    0.4388 C   0  0  0  0  0  0  0  0  0  0  0  0
   -0.2840    1.8654    0.5565 O   0  0  0  0  0  0  0  0  0  0  0  0
   -2.6407    2.7535   -1.3532 N   0  0  0  0  0  0  0  0  0  0  0  0
   -2.7112    2.8298   -0.1178 C   0  0  0  0  0  0  0  0  0  0  0  0
   -1.2543   -0.3922    0.5171 C   0  0  0  0  0  0  0  0  0  0  0  0
   -2.4239   -0.2174    0.7328 O   0  0  0  0  0  0  0  0  0  0  0  0
   -0.6794   -1.6626    0.2875 N   0  0  0  0  0  0  0  0  0  0  0  0
   -1.4391   -2.8876    0.2335 C   0  0  0  0  0  0  0  0  0  0  0  0
    3.5868    1.2433    1.0056 H   0  0  0  0  0  0  0  0  0  0  0  0
    4.0031    1.0294   -0.7063 H   0  0  0  0  0  0  0  0  0  0  0  0
    2.5508    1.9528   -0.2392 H   0  0  0  0  0  0  0  0  0  0  0  0
    3.8071   -1.6282   -0.4592 H   0  0  0  0  0  0  0  0  0  0  0  0
   -2.4891    3.7188    0.4794 H   0  0  0  0  0  0  0  0  0  0  0  0
   -2.3652    3.5466   -1.9235 H   0  0  0  0  0  0  0  0  0  0  0  0
   -3.0223    1.9505    0.4388 H   0  0  0  0  0  0  0  0  0  0  0  0
   -1.0767   -3.6007    0.9745 H   0  0  0  0  0  0  0  0  0  0  0  0
   -1.3874   -3.3308   -0.7621 H   0  0  0  0  0  0  0  0  0  0  0  0
   -2.4745   -2.6342    0.4571 H   0  0  0  0  0  0  0  0  0  0  0  0
    1.8243   -3.2074   -0.3221 H   0  0  0  0  0  0  0  0  0  0  0  0
  1  2  1  0  0  0  0
  2  3  4  0  0  0  0
  3  4  4  0  0  0  0
  4  5  4  0  0  0  0
  2  6  1  0  0  0  0
  5  6  4  0  0  0  0
  6  7  1  0  0  0  0
  7  8  2  0  0  0  0
  9 10  2  0  0  0  0
  7 11  1  0  0  0  0
 11 12  2  0  0  0  0
  5 13  1  0  0  0  0
 11 13  1  0  0  0  0
 13 14  1  0  0  0  0
  1 15  1  0  0  0  0
  1 16  1  0  0  0  0
  1 17  1  0  0  0  0
  3 18  1  0  0  0  0
 10 19  1  0  0  0  0
  9 20  1  0  0  0  0
 10 21  1  0  0  0  0
 14 22  1  0  0  0  0
 14 23  1  0  0  0  0
 14 24  1  0  0  0  0
  4 25  1  0  0  0  0
M  CHG  1   1   1
M  END
