 xtb: 6.6.1 (8d0f1dd)
          06052419593D

 25 27  0     0  0            999 V2000
    2.8669    0.7333    0.4382 C   0  0  0  0  0  0  0  0  0  0  0  0
    1.8437   -0.2185    0.0666 N   0  0  0  0  0  0  0  0  0  0  0  0
    2.1308   -1.3902   -0.4471 C   0  0  0  0  0  0  0  0  0  0  0  0
    1.1726   -2.2602   -0.8777 N   0  0  0  0  0  0  0  0  0  0  0  0
   -0.1943   -2.0995   -0.5285 C   0  0  0  0  0  0  0  0  0  0  0  0
    0.5266    0.1614    0.2921 C   0  0  0  0  0  0  0  0  0  0  0  0
   -0.0350    1.4496    0.1261 C   0  0  0  0  0  0  0  0  0  0  0  0
    0.4562    2.5515    0.1415 O   0  0  0  0  0  0  0  0  0  0  0  0
   -1.4468    1.2237   -0.0640 N   0  0  0  0  0  0  0  0  0  0  0  0
   -2.3747    2.3218   -0.2285 C   0  0  0  0  0  0  0  0  0  0  0  0
   -1.7828   -0.0544   -0.1597 C   0  0  0  0  0  0  0  0  0  0  0  0
   -2.7901   -0.6499   -0.3698 O   0  0  0  0  0  0  0  0  0  0  0  0
   -0.4929   -0.8276    0.1061 N   0  0  0  0  0  0  0  0  0  0  0  0
   -0.5871   -2.0512    0.9012 C   0  0  0  0  0  0  0  0  0  0  0  0
    3.0309    0.7052    1.5165 H   0  0  0  0  0  0  0  0  0  0  0  0
    3.7962    0.5068   -0.0772 H   0  0  0  0  0  0  0  0  0  0  0  0
    2.5292    1.7372    0.1764 H   0  0  0  0  0  0  0  0  0  0  0  0
    3.1598   -1.6701   -0.5943 H   0  0  0  0  0  0  0  0  0  0  0  0
   -1.7802    3.2214   -0.3828 H   0  0  0  0  0  0  0  0  0  0  0  0
   -3.0222    2.1390   -1.0840 H   0  0  0  0  0  0  0  0  0  0  0  0
   -2.9843    2.4378    0.6677 H   0  0  0  0  0  0  0  0  0  0  0  0
    0.1685   -2.1860    1.6643 H   0  0  0  0  0  0  0  0  0  0  0  0
   -0.8997   -2.4520   -1.2667 H   0  0  0  0  0  0  0  0  0  0  0  0
   -1.5959   -2.3301    1.1848 H   0  0  0  0  0  0  0  0  0  0  0  0
    1.4651   -3.1807   -1.1701 H   0  0  0  0  0  0  0  0  0  0  0  0
  1  2  1  0  0  0  0
  2  3  4  0  0  0  0
  3  4  4  0  0  0  0
  4  5  1  0  0  0  0
  2  6  1  0  0  0  0
  6  7  4  0  0  0  0
  7  8  2  0  0  0  0
  7  9  1  0  0  0  0
  9 10  1  0  0  0  0
  9 11  4  0  0  0  0
 11 12  2  0  0  0  0
  5 13  1  0  0  0  0
  6 13  1  0  0  0  0
 11 13  1  0  0  0  0
  5 14  1  0  0  0  0
 13 14  1  0  0  0  0
  1 15  1  0  0  0  0
  1 16  1  0  0  0  0
  1 17  1  0  0  0  0
  3 18  1  0  0  0  0
 10 19  1  0  0  0  0
 10 20  1  0  0  0  0
 10 21  1  0  0  0  0
 14 22  1  0  0  0  0
  5 23  1  0  0  0  0
 14 24  1  0  0  0  0
  4 25  1  0  0  0  0
M  CHG  1   1   1
M  END
