 xtb: 6.6.1 (8d0f1dd)
          06052419583D

 25 26  0     0  0            999 V2000
    3.3713    0.5941    0.0663 C   0  0  0  0  0  0  0  0  0  0  0  0
    3.5489   -0.8347   -0.0168 N   0  0  0  0  0  0  0  0  0  0  0  0
    2.6808   -1.7902   -0.0425 C   0  0  0  0  0  0  0  0  0  0  0  0
    1.3562   -1.7809   -0.0264 N   0  0  0  0  0  0  0  0  0  0  0  0
    0.4181   -0.7458   -0.0206 C   0  0  0  0  0  0  0  0  0  0  0  0
    0.7699    0.5627   -0.0430 C   0  0  0  0  0  0  0  0  0  0  0  0
   -0.1491    1.6492   -0.0377 C   0  0  0  0  0  0  0  0  0  0  0  0
    0.1221    2.8289   -0.0465 O   0  0  0  0  0  0  0  0  0  0  0  0
   -1.4899    1.2082   -0.0206 N   0  0  0  0  0  0  0  0  0  0  0  0
   -2.5388    2.2088   -0.0165 C   0  0  0  0  0  0  0  0  0  0  0  0
   -1.9013   -0.1030   -0.0014 C   0  0  0  0  0  0  0  0  0  0  0  0
   -3.0709   -0.4008    0.0165 O   0  0  0  0  0  0  0  0  0  0  0  0
   -0.9084   -1.0938   -0.0017 N   0  0  0  0  0  0  0  0  0  0  0  0
   -1.3573   -2.4719    0.0205 C   0  0  0  0  0  0  0  0  0  0  0  0
    3.7129    0.9922    1.0212 H   0  0  0  0  0  0  0  0  0  0  0  0
    3.8414    1.1089   -0.7703 H   0  0  0  0  0  0  0  0  0  0  0  0
    2.1793    0.7861    0.0016 H   0  0  0  0  0  0  0  0  0  0  0  0
    4.5301   -1.1190   -0.0455 H   0  0  0  0  0  0  0  0  0  0  0  0
   -2.0699    3.1922   -0.0132 H   0  0  0  0  0  0  0  0  0  0  0  0
   -3.1688    2.0938   -0.9009 H   0  0  0  0  0  0  0  0  0  0  0  0
   -3.1680    2.0856    0.8672 H   0  0  0  0  0  0  0  0  0  0  0  0
   -1.0050   -2.9858    0.9171 H   0  0  0  0  0  0  0  0  0  0  0  0
   -1.0419   -3.0032   -0.8799 H   0  0  0  0  0  0  0  0  0  0  0  0
   -2.4486   -2.4526    0.0419 H   0  0  0  0  0  0  0  0  0  0  0  0
    0.9474   -2.7110   -0.0378 H   0  0  0  0  0  0  0  0  0  0  0  0
  1  2  1  0  0  0  0
  2  3  2  0  0  0  0
  3  4  4  0  0  0  0
  4  5  1  0  0  0  0
  5  6  4  0  0  0  0
  6  7  1  0  0  0  0
  7  8  2  0  0  0  0
  7  9  1  0  0  0  0
  9 10  1  0  0  0  0
  9 11  1  0  0  0  0
 11 12  2  0  0  0  0
  5 13  1  0  0  0  0
 11 13  1  0  0  0  0
 13 14  1  0  0  0  0
  1 15  1  0  0  0  0
  1 16  1  0  0  0  0
  1 17  1  0  0  0  0
  6 17  1  0  0  0  0
  2 18  1  0  0  0  0
 10 19  1  0  0  0  0
 10 20  1  0  0  0  0
 10 21  1  0  0  0  0
 14 22  1  0  0  0  0
 14 23  1  0  0  0  0
 14 24  1  0  0  0  0
  4 25  1  0  0  0  0
M  CHG  1   1   1
M  END
