 xtb: 6.6.1 (8d0f1dd)
          04062411143D

 72 72  0     0  0            999 V2000
   -2.0253    2.9435    2.1965 N   0  0  0  0  0  0  0  0  0  0  0  0
   -1.9797    2.1965    1.1973 C   0  0  0  0  0  0  0  0  0  0  0  0
   -3.1320    1.9442    0.2643 C   0  0  0  0  0  0  0  0  0  0  0  0
   -3.5557    0.4871    0.3615 C   0  0  0  0  0  0  0  0  0  0  0  0
   -4.4333   -0.0460   -0.5849 C   0  0  0  0  0  0  0  0  0  0  0  0
   -4.8709   -1.3578   -0.5083 C   0  0  0  0  0  0  0  0  0  0  0  0
   -5.7155   -1.9493   -1.3779 O   0  0  0  0  0  0  0  0  0  0  0  0
   -6.2880   -1.1848   -2.4128 C   0  0  0  0  0  0  0  0  0  0  0  0
   -4.4198   -2.1853    0.5558 C   0  0  0  0  0  0  0  0  0  0  0  0
   -4.9005   -3.4442    0.5547 O   0  0  0  0  0  0  0  0  0  0  0  0
   -4.5817   -4.3010    1.6267 C   0  0  0  0  0  0  0  0  0  0  0  0
   -3.5490   -1.6497    1.4915 C   0  0  0  0  0  0  0  0  0  0  0  0
   -3.1236   -0.3308    1.3943 C   0  0  0  0  0  0  0  0  0  0  0  0
   -2.5976    2.2587   -1.1576 C   0  0  0  0  0  0  0  0  0  0  0  0
   -1.6519    1.1913   -1.7364 C   0  0  0  0  0  0  0  0  0  0  0  0
   -0.3104    1.1769   -1.1126 C   0  0  0  0  0  0  0  0  0  0  0  0
    0.3530    0.0914   -0.7398 N   0  0  0  0  0  0  0  0  0  0  0  0
    1.7557    0.1660   -0.4035 C   0  0  0  0  0  0  0  0  0  0  0  0
    2.6405   -0.3296   -1.5626 C   0  0  0  0  0  0  0  0  0  0  0  0
    4.0905   -0.1598   -1.1999 C   0  0  0  0  0  0  0  0  0  0  0  0
    4.7384    1.0403   -1.4578 C   0  0  0  0  0  0  0  0  0  0  0  0
    6.0639    1.2069   -1.0841 C   0  0  0  0  0  0  0  0  0  0  0  0
    6.7471    0.1896   -0.4539 C   0  0  0  0  0  0  0  0  0  0  0  0
   10.1669    1.0568    1.3188 O   0  0  0  0  0  0  0  0  0  0  0  0
   11.1314    1.7275    1.5384 C   0  0  0  0  0  0  0  0  0  0  0  0
    6.1072   -1.0303   -0.1958 C   0  0  0  0  0  0  0  0  0  0  0  0
    6.8570   -1.9722    0.4090 O   0  0  0  0  0  0  0  0  0  0  0  0
    6.2991   -3.2347    0.6856 C   0  0  0  0  0  0  0  0  0  0  0  0
    4.7729   -1.1913   -0.5677 C   0  0  0  0  0  0  0  0  0  0  0  0
   -0.2511   -1.2196   -0.7539 C   0  0  0  0  0  0  0  0  0  0  0  0
   -4.3788    2.8282    0.5668 C   0  0  0  0  0  0  0  0  0  0  0  0
   -4.9768    2.5047    1.9338 C   0  0  0  0  0  0  0  0  0  0  0  0
   -4.0922    4.3241    0.4715 C   0  0  0  0  0  0  0  0  0  0  0  0
   -4.7918    0.5805   -1.3847 H   0  0  0  0  0  0  0  0  0  0  0  0
   -6.8610   -0.3406   -2.0180 H   0  0  0  0  0  0  0  0  0  0  0  0
   -6.9597   -1.8613   -2.9375 H   0  0  0  0  0  0  0  0  0  0  0  0
   -5.5282   -0.8187   -3.1111 H   0  0  0  0  0  0  0  0  0  0  0  0
   -4.9131   -3.8857    2.5829 H   0  0  0  0  0  0  0  0  0  0  0  0
   -5.1185   -5.2268    1.4297 H   0  0  0  0  0  0  0  0  0  0  0  0
   -3.5076   -4.5077    1.6703 H   0  0  0  0  0  0  0  0  0  0  0  0
   -3.2024   -2.2490    2.3176 H   0  0  0  0  0  0  0  0  0  0  0  0
   -2.4696    0.0593    2.1587 H   0  0  0  0  0  0  0  0  0  0  0  0
   -3.4445    2.3619   -1.8350 H   0  0  0  0  0  0  0  0  0  0  0  0
   -2.0789    3.2177   -1.1321 H   0  0  0  0  0  0  0  0  0  0  0  0
   -2.1283    0.2139   -1.6890 H   0  0  0  0  0  0  0  0  0  0  0  0
   -1.5087    1.4424   -2.7957 H   0  0  0  0  0  0  0  0  0  0  0  0
   -1.0636    1.6732    0.8611 H   0  0  0  0  0  0  0  0  0  0  0  0
    0.2363    2.1085   -1.0886 H   0  0  0  0  0  0  0  0  0  0  0  0
    1.9463   -0.4402    0.4863 H   0  0  0  0  0  0  0  0  0  0  0  0
    2.0192    1.2007   -0.1748 H   0  0  0  0  0  0  0  0  0  0  0  0
    2.4090    0.2539   -2.4555 H   0  0  0  0  0  0  0  0  0  0  0  0
    2.4232   -1.3784   -1.7684 H   0  0  0  0  0  0  0  0  0  0  0  0
    4.2132    1.8397   -1.9587 H   0  0  0  0  0  0  0  0  0  0  0  0
    6.5655    2.1400   -1.2878 H   0  0  0  0  0  0  0  0  0  0  0  0
   11.4758    1.9610    2.5590 H   0  0  0  0  0  0  0  0  0  0  0  0
    7.7749    0.3016   -0.1475 H   0  0  0  0  0  0  0  0  0  0  0  0
   11.7497    2.1615    0.7360 H   0  0  0  0  0  0  0  0  0  0  0  0
    7.0952   -3.8126    1.1512 H   0  0  0  0  0  0  0  0  0  0  0  0
    5.4565   -3.1578    1.3806 H   0  0  0  0  0  0  0  0  0  0  0  0
    5.9749   -3.7397   -0.2299 H   0  0  0  0  0  0  0  0  0  0  0  0
    4.2592   -2.1218   -0.3796 H   0  0  0  0  0  0  0  0  0  0  0  0
   -0.4167   -1.5695   -1.7751 H   0  0  0  0  0  0  0  0  0  0  0  0
   -1.2081   -1.2033   -0.2275 H   0  0  0  0  0  0  0  0  0  0  0  0
    0.4082   -1.9217   -0.2499 H   0  0  0  0  0  0  0  0  0  0  0  0
   -5.1262    2.5761   -0.1945 H   0  0  0  0  0  0  0  0  0  0  0  0
   -4.2731    2.7630    2.7186 H   0  0  0  0  0  0  0  0  0  0  0  0
   -5.2262    1.4495    2.0152 H   0  0  0  0  0  0  0  0  0  0  0  0
   -5.8854    3.0828    2.0794 H   0  0  0  0  0  0  0  0  0  0  0  0
   -3.3267    4.6074    1.1872 H   0  0  0  0  0  0  0  0  0  0  0  0
   -3.7769    4.6156   -0.5267 H   0  0  0  0  0  0  0  0  0  0  0  0
   -4.9984    4.8755    0.7080 H   0  0  0  0  0  0  0  0  0  0  0  0
   -1.1767    3.0659    2.7400 H   0  0  0  0  0  0  0  0  0  0  0  0
  1  2  2  0  0  0  0
  2  3  1  0  0  0  0
  3  4  1  0  0  0  0
  4  5  4  0  0  0  0
  5  6  4  0  0  0  0
  6  7  1  0  0  0  0
  7  8  1  0  0  0  0
  6  9  4  0  0  0  0
  9 10  1  0  0  0  0
 10 11  1  0  0  0  0
  9 12  4  0  0  0  0
  4 13  4  0  0  0  0
 12 13  4  0  0  0  0
  3 14  1  0  0  0  0
 14 15  1  0  0  0  0
 15 16  1  0  0  0  0
 16 17  4  0  0  0  0
 17 18  1  0  0  0  0
 18 19  1  0  0  0  0
 19 20  1  0  0  0  0
 20 21  4  0  0  0  0
 21 22  4  0  0  0  0
 22 23  4  0  0  0  0
 24 25  2  0  0  0  0
 23 26  4  0  0  0  0
 26 27  1  0  0  0  0
 27 28  1  0  0  0  0
 20 29  4  0  0  0  0
 26 29  4  0  0  0  0
 17 30  1  0  0  0  0
  3 31  1  0  0  0  0
 31 32  1  0  0  0  0
 31 33  1  0  0  0  0
  5 34  1  0  0  0  0
  8 35  1  0  0  0  0
  8 36  1  0  0  0  0
  8 37  1  0  0  0  0
 11 38  1  0  0  0  0
 11 39  1  0  0  0  0
 11 40  1  0  0  0  0
 12 41  1  0  0  0  0
 13 42  1  0  0  0  0
 14 43  1  0  0  0  0
 14 44  1  0  0  0  0
 15 45  1  0  0  0  0
 15 46  1  0  0  0  0
  2 47  1  0  0  0  0
 16 48  1  0  0  0  0
 18 49  1  0  0  0  0
 18 50  1  0  0  0  0
 19 51  1  0  0  0  0
 19 52  1  0  0  0  0
 21 53  1  0  0  0  0
 22 54  1  0  0  0  0
 25 55  1  0  0  0  0
 23 56  1  0  0  0  0
 25 57  1  0  0  0  0
 28 58  1  0  0  0  0
 28 59  1  0  0  0  0
 28 60  1  0  0  0  0
 29 61  1  0  0  0  0
 30 62  1  0  0  0  0
 30 63  1  0  0  0  0
 30 64  1  0  0  0  0
 31 65  1  0  0  0  0
 32 66  1  0  0  0  0
 32 67  1  0  0  0  0
 32 68  1  0  0  0  0
 33 69  1  0  0  0  0
 33 70  1  0  0  0  0
 33 71  1  0  0  0  0
  1 72  1  0  0  0  0
M  CHG  1   1   1
M  END
