 xtb: 6.6.1 (8d0f1dd)
          04062411143D

 72 72  0     0  0            999 V2000
   -1.9168    2.8353    2.2348 N   0  0  0  0  0  0  0  0  0  0  0  0
   -1.8537    2.1380    1.2006 C   0  0  0  0  0  0  0  0  0  0  0  0
   -2.9963    1.9229    0.2465 C   0  0  0  0  0  0  0  0  0  0  0  0
   -3.4652    0.4780    0.3326 C   0  0  0  0  0  0  0  0  0  0  0  0
   -4.4083    0.0039   -0.5818 C   0  0  0  0  0  0  0  0  0  0  0  0
   -4.8845   -1.2949   -0.5243 C   0  0  0  0  0  0  0  0  0  0  0  0
   -5.8055   -1.8234   -1.3561 O   0  0  0  0  0  0  0  0  0  0  0  0
   -6.4343   -0.9926   -2.3033 C   0  0  0  0  0  0  0  0  0  0  0  0
   -4.3913   -2.1775    0.4750 C   0  0  0  0  0  0  0  0  0  0  0  0
   -4.9015   -3.4244    0.4493 O   0  0  0  0  0  0  0  0  0  0  0  0
   -4.5174   -4.3443    1.4445 C   0  0  0  0  0  0  0  0  0  0  0  0
   -3.4544   -1.7013    1.3781 C   0  0  0  0  0  0  0  0  0  0  0  0
   -3.0017   -0.3894    1.3094 C   0  0  0  0  0  0  0  0  0  0  0  0
   -2.4355    2.2113   -1.1713 C   0  0  0  0  0  0  0  0  0  0  0  0
   -1.5052    1.1168   -1.7251 C   0  0  0  0  0  0  0  0  0  0  0  0
   -0.1634    1.1132   -1.1026 C   0  0  0  0  0  0  0  0  0  0  0  0
    0.5098    0.0323   -0.7225 N   0  0  0  0  0  0  0  0  0  0  0  0
    1.8906    0.1362   -0.3129 C   0  0  0  0  0  0  0  0  0  0  0  0
    2.8571   -0.2838   -1.4378 C   0  0  0  0  0  0  0  0  0  0  0  0
    4.2795   -0.0817   -0.9950 C   0  0  0  0  0  0  0  0  0  0  0  0
    4.9164    1.1366   -1.1983 C   0  0  0  0  0  0  0  0  0  0  0  0
    6.2126    1.3529   -0.7576 C   0  0  0  0  0  0  0  0  0  0  0  0
    6.9125    0.3511   -0.0987 C   0  0  0  0  0  0  0  0  0  0  0  0
    8.1668    0.4395    0.3720 O   0  0  0  0  0  0  0  0  0  0  0  0
    8.8865    1.6415    0.2013 C   0  0  0  0  0  0  0  0  0  0  0  0
    6.2709   -0.9021    0.1014 C   0  0  0  0  0  0  0  0  0  0  0  0
    7.0185   -1.8272    0.7478 O   0  0  0  0  0  0  0  0  0  0  0  0
    6.7087   -3.0833    0.9123 C   0  0  0  0  0  0  0  0  0  0  0  0
    4.9628   -1.0954   -0.3394 C   0  0  0  0  0  0  0  0  0  0  0  0
   -0.0739   -1.2872   -0.7678 C   0  0  0  0  0  0  0  0  0  0  0  0
   -4.2151    2.8511    0.5302 C   0  0  0  0  0  0  0  0  0  0  0  0
   -4.8678    2.5253    1.8714 C   0  0  0  0  0  0  0  0  0  0  0  0
   -3.8660    4.3358    0.4736 C   0  0  0  0  0  0  0  0  0  0  0  0
   -4.7871    0.6677   -1.3408 H   0  0  0  0  0  0  0  0  0  0  0  0
   -6.9396   -0.1490   -1.8233 H   0  0  0  0  0  0  0  0  0  0  0  0
   -7.1730   -1.6203   -2.7977 H   0  0  0  0  0  0  0  0  0  0  0  0
   -5.7232   -0.6195   -3.0476 H   0  0  0  0  0  0  0  0  0  0  0  0
   -4.7716   -3.9823    2.4450 H   0  0  0  0  0  0  0  0  0  0  0  0
   -5.0804   -5.2518    1.2354 H   0  0  0  0  0  0  0  0  0  0  0  0
   -3.4461   -4.5640    1.3963 H   0  0  0  0  0  0  0  0  0  0  0  0
   -3.0768   -2.3421    2.1584 H   0  0  0  0  0  0  0  0  0  0  0  0
   -2.2982   -0.0473    2.0526 H   0  0  0  0  0  0  0  0  0  0  0  0
   -3.2715    2.3243   -1.8603 H   0  0  0  0  0  0  0  0  0  0  0  0
   -1.8964    3.1591   -1.1502 H   0  0  0  0  0  0  0  0  0  0  0  0
   -1.9914    0.1462   -1.6428 H   0  0  0  0  0  0  0  0  0  0  0  0
   -1.3698    1.3307   -2.7936 H   0  0  0  0  0  0  0  0  0  0  0  0
   -0.9314    1.6326    0.8543 H   0  0  0  0  0  0  0  0  0  0  0  0
    0.3735    2.0500   -1.0734 H   0  0  0  0  0  0  0  0  0  0  0  0
    2.0539   -0.4984    0.5622 H   0  0  0  0  0  0  0  0  0  0  0  0
    2.1060    1.1689   -0.0303 H   0  0  0  0  0  0  0  0  0  0  0  0
    2.6535    0.3247   -2.3202 H   0  0  0  0  0  0  0  0  0  0  0  0
    2.6889   -1.3303   -1.6935 H   0  0  0  0  0  0  0  0  0  0  0  0
    4.4011    1.9316   -1.7149 H   0  0  0  0  0  0  0  0  0  0  0  0
    6.6730    2.3105   -0.9362 H   0  0  0  0  0  0  0  0  0  0  0  0
    8.3921    2.4782    0.7027 H   0  0  0  0  0  0  0  0  0  0  0  0
    9.0255    1.8764   -0.8576 H   0  0  0  0  0  0  0  0  0  0  0  0
    9.8563    1.4661    0.6628 H   0  0  0  0  0  0  0  0  0  0  0  0
    7.4188   -3.6558    1.4782 H   0  0  0  0  0  0  0  0  0  0  0  0
    5.4730   -5.2353    2.7360 H   0  0  0  0  0  0  0  0  0  0  0  0
    5.8125   -3.5365    0.5248 H   0  0  0  0  0  0  0  0  0  0  0  0
    4.4727   -2.0407   -0.1659 H   0  0  0  0  0  0  0  0  0  0  0  0
   -0.2363   -1.6130   -1.7976 H   0  0  0  0  0  0  0  0  0  0  0  0
   -1.0314   -1.2986   -0.2411 H   0  0  0  0  0  0  0  0  0  0  0  0
    0.5953   -1.9932   -0.2823 H   0  0  0  0  0  0  0  0  0  0  0  0
   -4.9492    2.6483   -0.2578 H   0  0  0  0  0  0  0  0  0  0  0  0
   -4.1776    2.7345    2.6821 H   0  0  0  0  0  0  0  0  0  0  0  0
   -5.1650    1.4806    1.9211 H   0  0  0  0  0  0  0  0  0  0  0  0
   -5.7544    3.1400    2.0031 H   0  0  0  0  0  0  0  0  0  0  0  0
   -3.1208    4.5779    1.2249 H   0  0  0  0  0  0  0  0  0  0  0  0
   -3.4980    4.6299   -0.5059 H   0  0  0  0  0  0  0  0  0  0  0  0
   -4.7590    4.9192    0.6819 H   0  0  0  0  0  0  0  0  0  0  0  0
   -1.0763    2.9316    2.7958 H   0  0  0  0  0  0  0  0  0  0  0  0
  1  2  2  0  0  0  0
  2  3  1  0  0  0  0
  3  4  1  0  0  0  0
  4  5  4  0  0  0  0
  5  6  4  0  0  0  0
  6  7  1  0  0  0  0
  7  8  1  0  0  0  0
  6  9  4  0  0  0  0
  9 10  1  0  0  0  0
 10 11  1  0  0  0  0
  9 12  4  0  0  0  0
  4 13  4  0  0  0  0
 12 13  4  0  0  0  0
  3 14  1  0  0  0  0
 14 15  1  0  0  0  0
 15 16  1  0  0  0  0
 16 17  4  0  0  0  0
 17 18  1  0  0  0  0
 18 19  1  0  0  0  0
 19 20  1  0  0  0  0
 20 21  4  0  0  0  0
 21 22  4  0  0  0  0
 22 23  4  0  0  0  0
 23 24  1  0  0  0  0
 24 25  1  0  0  0  0
 23 26  4  0  0  0  0
 26 27  1  0  0  0  0
 27 28  4  0  0  0  0
 20 29  4  0  0  0  0
 26 29  4  0  0  0  0
 17 30  1  0  0  0  0
  3 31  1  0  0  0  0
 31 32  1  0  0  0  0
 31 33  1  0  0  0  0
  5 34  1  0  0  0  0
  8 35  1  0  0  0  0
  8 36  1  0  0  0  0
  8 37  1  0  0  0  0
 11 38  1  0  0  0  0
 11 39  1  0  0  0  0
 11 40  1  0  0  0  0
 12 41  1  0  0  0  0
 13 42  1  0  0  0  0
 14 43  1  0  0  0  0
 14 44  1  0  0  0  0
 15 45  1  0  0  0  0
 15 46  1  0  0  0  0
  2 47  1  0  0  0  0
 16 48  1  0  0  0  0
 18 49  1  0  0  0  0
 18 50  1  0  0  0  0
 19 51  1  0  0  0  0
 19 52  1  0  0  0  0
 21 53  1  0  0  0  0
 22 54  1  0  0  0  0
 25 55  1  0  0  0  0
 25 56  1  0  0  0  0
 25 57  1  0  0  0  0
 28 58  1  0  0  0  0
 28 60  1  0  0  0  0
 29 61  1  0  0  0  0
 30 62  1  0  0  0  0
 30 63  1  0  0  0  0
 30 64  1  0  0  0  0
 31 65  1  0  0  0  0
 32 66  1  0  0  0  0
 32 67  1  0  0  0  0
 32 68  1  0  0  0  0
 33 69  1  0  0  0  0
 33 70  1  0  0  0  0
 33 71  1  0  0  0  0
  1 72  1  0  0  0  0
M  CHG  1   1   1
M  END
