          21
 
C              3.54578174        0.72111693        0.01419053
N              2.45213927       -0.21315082       -0.00007510
C              2.53502800       -1.54414584       -0.00587480
N              1.30065287       -2.08686178       -0.00700887
C              0.38275842       -1.06993341       -0.00084553
C              1.12355142        0.12103649        0.00355675
C              0.44802517        1.39384084       -0.00201971
O              0.99099135        2.48481663       -0.01160854
N             -0.93002420        1.23644053        0.00165601
C             -1.74951138        2.42830639       -0.00023773
C             -1.63066542        0.00385637        0.00456243
O             -2.84361013        0.03364946        0.00945211
N             -0.92602926       -1.15166176        0.00002686
H              4.08634542        0.66037350        0.96041097
H              4.23951890        0.50782981       -0.79936288
H              3.14510467        1.72862510       -0.10039332
H              3.45232724       -2.10015505       -0.01033836
H             -1.09276297        3.29751510        0.00491965
H             -2.38734629        2.44050760       -0.88654285
H             -2.39668702        2.43586053        0.87924400
H              1.07896443       -3.07223408       -0.01145151
