 xtb: 6.6.1 (8d0f1dd)
          06052420003D

 25 26  0     0  0            999 V2000
    3.2743    1.1376    0.0270 C   0  0  0  0  0  0  0  0  0  0  0  0
    2.4170    0.1447    0.0085 N   0  0  0  0  0  0  0  0  0  0  0  0
    2.5731   -1.0999   -0.4943 C   0  0  0  0  0  0  0  0  0  0  0  0
    1.4111   -1.8086   -0.3751 N   0  0  0  0  0  0  0  0  0  0  0  0
    0.4735   -1.0748    0.2379 C   0  0  0  0  0  0  0  0  0  0  0  0
    1.0695    0.2449    0.5544 C   0  0  0  0  0  0  0  0  0  0  0  0
    0.1807    1.3467   -0.1029 C   0  0  0  0  0  0  0  0  0  0  0  0
    0.6472    2.3257   -0.6111 O   0  0  0  0  0  0  0  0  0  0  0  0
   -1.1488    1.0647    0.0208 N   0  0  0  0  0  0  0  0  0  0  0  0
   -2.1045    2.1325   -0.2705 C   0  0  0  0  0  0  0  0  0  0  0  0
   -1.7248   -0.1672    0.3402 C   0  0  0  0  0  0  0  0  0  0  0  0
   -2.8971   -0.3009    0.5454 O   0  0  0  0  0  0  0  0  0  0  0  0
   -0.8550   -1.2748    0.3118 N   0  0  0  0  0  0  0  0  0  0  0  0
   -1.4355   -2.6035    0.2259 C   0  0  0  0  0  0  0  0  0  0  0  0
    1.0850    0.5060    1.6212 H   0  0  0  0  0  0  0  0  0  0  0  0
    4.2421    1.0053   -0.4188 H   0  0  0  0  0  0  0  0  0  0  0  0
    2.9908    2.0807    0.4491 H   0  0  0  0  0  0  0  0  0  0  0  0
    3.4720   -1.4772   -0.9316 H   0  0  0  0  0  0  0  0  0  0  0  0
   -1.5670    3.0758   -0.3087 H   0  0  0  0  0  0  0  0  0  0  0  0
   -2.5955    1.9504   -1.2256 H   0  0  0  0  0  0  0  0  0  0  0  0
   -2.8584    2.1517    0.5147 H   0  0  0  0  0  0  0  0  0  0  0  0
   -0.9164   -3.2821    0.9005 H   0  0  0  0  0  0  0  0  0  0  0  0
   -1.3906   -2.9822   -0.7968 H   0  0  0  0  0  0  0  0  0  0  0  0
   -2.4801   -2.5243    0.5244 H   0  0  0  0  0  0  0  0  0  0  0  0
    1.2977   -2.7530   -0.7153 H   0  0  0  0  0  0  0  0  0  0  0  0
  1  2  4  0  0  0  0
  2  3  4  0  0  0  0
  3  4  1  0  0  0  0
  4  5  4  0  0  0  0
  2  6  1  0  0  0  0
  5  6  1  0  0  0  0
  6  7  1  0  0  0  0
  7  8  2  0  0  0  0
  7  9  1  0  0  0  0
  9 10  1  0  0  0  0
  9 11  1  0  0  0  0
 11 12  2  0  0  0  0
  5 13  4  0  0  0  0
 11 13  1  0  0  0  0
 13 14  1  0  0  0  0
  6 15  1  0  0  0  0
  1 16  1  0  0  0  0
  1 17  1  0  0  0  0
  3 18  1  0  0  0  0
 10 19  1  0  0  0  0
 10 20  1  0  0  0  0
 10 21  1  0  0  0  0
 14 22  1  0  0  0  0
 14 23  1  0  0  0  0
 14 24  1  0  0  0  0
  4 25  1  0  0  0  0
M  CHG  1   1   1
M  END
