          24
 
C              3.25339638        1.11882966        0.01599283
N              2.26749124        0.07600730       -0.00097917
C              2.48302918       -1.26194986       -0.00679779
N              1.37153590       -1.96281885       -0.00675845
C              0.37168352       -1.05710790        0.00019757
C              0.91511658        0.23798366        0.00462465
C              0.08043860        1.41507917       -0.00235919
O              0.47017332        2.56094174       -0.01279892
N             -1.27392160        1.08224138        0.00070293
C             -2.23399774        2.17170486       -0.00217373
C             -1.83261826       -0.19061903        0.00377037
O             -3.02475804       -0.35237172        0.00713951
N             -0.95547466       -1.28026837        0.00153250
C             -1.48449137       -2.62253153       -0.00065171
H              3.76503962        1.14108599        0.98087161
H              3.99466185        0.94970059       -0.76567145
H              2.76088588        2.07753318       -0.14407897
H              3.46213639       -1.69838382       -0.01194356
H             -1.68669147        3.11222381        0.00447987
H             -2.86755937        2.10801514       -0.88857673
H             -2.87951425        2.10112823        0.87493087
H             -1.13016810       -3.15888684        0.88104483
H             -1.14547372       -3.15057216       -0.89345350
H             -2.57191192       -2.56637377        0.00850347
