          53
 
N             -1.49373283        2.58301736        2.34558289
C             -1.58601010        1.85431873        1.33577176
C             -2.74099469        1.87194652        0.37164120
C             -3.45487784        0.53019174        0.40905050
C             -4.40556841        0.22277338       -0.56643177
C             -5.09425744       -0.97881678       -0.55319688
O             -6.02797701       -1.35140972       -1.45166610
C             -6.43591126       -0.43809989       -2.44293848
C             -4.82583764       -1.92845161        0.47047804
O             -5.53319673       -3.07259587        0.39789218
C             -5.37341925       -4.04491042        1.40426023
C             -3.88837245       -1.61259355        1.44126039
C             -3.21447622       -0.39815434        1.41069354
C             -2.11757268        2.11306360       -1.02986454
C             -1.41227236        0.88948910       -1.64077418
C             -0.12666118        0.56343197       -0.98359293
N              0.27031232       -0.63747292       -0.62373990
C              1.65683831       -0.87881552       -0.19691259
C              2.36562095       -1.74087854       -1.16406698
C             -0.58249434       -1.79760754       -0.72705948
C             -3.78635043        2.98411123        0.68234326
C             -4.47212861        2.74567287        2.02546238
C             -3.19690891        4.39126374        0.64776494
H             -4.61910318        0.94131696       -1.34028785
H             -6.83788023        0.47886374       -2.00168127
H             -7.22202864       -0.94414507       -2.99970780
H             -5.61573777       -0.18902767       -3.12422321
H             -5.64039286       -3.65052372        2.38921102
H             -6.05553504       -4.85091635        1.14129513
H             -4.34941945       -4.43147975        1.43074737
H             -3.68154314       -2.30326997        2.24246213
H             -2.51408227       -0.17554891        2.20078751
H             -2.90683450        2.42344782       -1.71378334
H             -1.40431562        2.93526407       -0.95725584
H             -2.08960449        0.03723844       -1.64532191
H             -1.18412796        1.14421042       -2.68350408
H             -0.79921875        1.14598000        1.01646650
H              0.59522547        1.36285004       -0.88910800
H              1.62779621       -1.34039618        0.79431705
H              2.14296081        0.10200267       -0.11229658
H              2.38234927       -1.42625033       -2.19230312
H              2.45039149       -2.79555370       -0.97742186
H             -0.81112926       -2.03405187       -1.76816073
H             -1.51863884       -1.62835137       -0.18956127
H             -0.07141726       -2.65024151       -0.28641417
H             -4.55032657        2.91686290       -0.10091759
H             -3.74790394        2.81419273        2.83083811
H             -4.94608054        1.76766762        2.05755899
H             -5.23670837        3.50155961        2.18323054
H             -2.42137865        4.49272374        1.40048965
H             -2.78525863        4.63661173       -0.32739711
H             -3.98081432        5.11096138        0.86819252
H             -0.65345166        2.50978112        2.91039749
