 xtb: 6.6.1 (8d0f1dd)
          04062411163D

 72 74  0     0  0            999 V2000
   -2.5636    0.8733    2.1742 N   0  0  0  0  0  0  0  0  0  0  0  0
   -2.4321    2.0567    1.5644 C   0  0  0  0  0  0  0  0  0  0  0  0
   -3.2037    2.0831    0.2903 C   0  0  0  0  0  0  0  0  0  0  0  0
   -3.7363    0.6733    0.2584 C   0  0  0  0  0  0  0  0  0  0  0  0
   -4.5293    0.0240   -0.6675 C   0  0  0  0  0  0  0  0  0  0  0  0
   -4.8807   -1.3039   -0.4419 C   0  0  0  0  0  0  0  0  0  0  0  0
   -5.6519   -2.0483   -1.2565 O   0  0  0  0  0  0  0  0  0  0  0  0
   -6.2259   -1.4512   -2.3966 C   0  0  0  0  0  0  0  0  0  0  0  0
   -4.4189   -1.9870    0.7244 C   0  0  0  0  0  0  0  0  0  0  0  0
   -4.8115   -3.2719    0.8128 O   0  0  0  0  0  0  0  0  0  0  0  0
   -4.4449   -4.0253    1.9453 C   0  0  0  0  0  0  0  0  0  0  0  0
   -3.6349   -1.3268    1.6584 C   0  0  0  0  0  0  0  0  0  0  0  0
   -3.3158    0.0030    1.4107 C   0  0  0  0  0  0  0  0  0  0  0  0
   -2.3302    2.4201   -0.9461 C   0  0  0  0  0  0  0  0  0  0  0  0
   -1.4204    1.2873   -1.4213 C   0  0  0  0  0  0  0  0  0  0  0  0
   -0.2742    0.9808   -0.4509 C   0  0  0  0  0  0  0  0  0  0  0  0
    0.6248   -0.0141   -0.9958 N   0  0  0  0  0  0  0  0  0  0  0  0
    1.9759    0.0060   -0.4768 C   0  0  0  0  0  0  0  0  0  0  0  0
    2.9893   -0.4324   -1.5493 C   0  0  0  0  0  0  0  0  0  0  0  0
    4.3907   -0.2297   -1.0540 C   0  0  0  0  0  0  0  0  0  0  0  0
    5.0177    1.0002   -1.1959 C   0  0  0  0  0  0  0  0  0  0  0  0
    6.3013    1.2053   -0.7169 C   0  0  0  0  0  0  0  0  0  0  0  0
    6.9891    0.1816   -0.0794 C   0  0  0  0  0  0  0  0  0  0  0  0
    8.2369    0.2665    0.4206 O   0  0  0  0  0  0  0  0  0  0  0  0
    8.9475    1.4758    0.2891 C   0  0  0  0  0  0  0  0  0  0  0  0
    6.3555   -1.0827    0.0746 C   0  0  0  0  0  0  0  0  0  0  0  0
    7.0939   -2.0215    0.7004 O   0  0  0  0  0  0  0  0  0  0  0  0
    6.5680   -3.3173    0.8609 C   0  0  0  0  0  0  0  0  0  0  0  0
    5.0690   -1.2619   -0.4117 C   0  0  0  0  0  0  0  0  0  0  0  0
    0.0347   -1.3311   -1.0692 C   0  0  0  0  0  0  0  0  0  0  0  0
   -4.3937    3.1006    0.3775 C   0  0  0  0  0  0  0  0  0  0  0  0
   -5.2583    2.8195    1.6055 C   0  0  0  0  0  0  0  0  0  0  0  0
   -3.9323    4.5540    0.3929 C   0  0  0  0  0  0  0  0  0  0  0  0
   -4.8677    0.5414   -1.5498 H   0  0  0  0  0  0  0  0  0  0  0  0
   -6.8699   -0.6092   -2.1253 H   0  0  0  0  0  0  0  0  0  0  0  0
   -6.8277   -2.2297   -2.8611 H   0  0  0  0  0  0  0  0  0  0  0  0
   -5.4611   -1.1157   -3.1038 H   0  0  0  0  0  0  0  0  0  0  0  0
   -4.8257   -3.5752    2.8670 H   0  0  0  0  0  0  0  0  0  0  0  0
   -4.9031   -5.0024    1.8063 H   0  0  0  0  0  0  0  0  0  0  0  0
   -3.3588   -4.1424    2.0146 H   0  0  0  0  0  0  0  0  0  0  0  0
   -3.2844   -1.8182    2.5507 H   0  0  0  0  0  0  0  0  0  0  0  0
   -0.6880    0.6409    0.5093 H   0  0  0  0  0  0  0  0  0  0  0  0
   -3.0032    2.6770   -1.7650 H   0  0  0  0  0  0  0  0  0  0  0  0
   -1.7235    3.2960   -0.7171 H   0  0  0  0  0  0  0  0  0  0  0  0
   -2.0152    0.3899   -1.5872 H   0  0  0  0  0  0  0  0  0  0  0  0
   -0.9803    1.5793   -2.3764 H   0  0  0  0  0  0  0  0  0  0  0  0
   -1.8645    2.8583    1.9916 H   0  0  0  0  0  0  0  0  0  0  0  0
    0.2944    1.9019   -0.2914 H   0  0  0  0  0  0  0  0  0  0  0  0
    2.0830   -0.6379    0.4106 H   0  0  0  0  0  0  0  0  0  0  0  0
    2.2218    1.0270   -0.1782 H   0  0  0  0  0  0  0  0  0  0  0  0
    2.8159    0.1681   -2.4427 H   0  0  0  0  0  0  0  0  0  0  0  0
    2.8324   -1.4799   -1.8057 H   0  0  0  0  0  0  0  0  0  0  0  0
    4.5050    1.8079   -1.6952 H   0  0  0  0  0  0  0  0  0  0  0  0
    6.7634    2.1699   -0.8500 H   0  0  0  0  0  0  0  0  0  0  0  0
    8.4420    2.2961    0.8082 H   0  0  0  0  0  0  0  0  0  0  0  0
    9.0921    1.7428   -0.7622 H   0  0  0  0  0  0  0  0  0  0  0  0
    9.9159    1.2978    0.7529 H   0  0  0  0  0  0  0  0  0  0  0  0
    7.3482   -3.8898    1.3591 H   0  0  0  0  0  0  0  0  0  0  0  0
    5.6690   -3.3114    1.4858 H   0  0  0  0  0  0  0  0  0  0  0  0
    6.3395   -3.7798   -0.1044 H   0  0  0  0  0  0  0  0  0  0  0  0
    4.5811   -2.2180   -0.3041 H   0  0  0  0  0  0  0  0  0  0  0  0
   -0.6577   -1.3838   -1.9090 H   0  0  0  0  0  0  0  0  0  0  0  0
   -0.5180   -1.5819   -0.1510 H   0  0  0  0  0  0  0  0  0  0  0  0
    0.8066   -2.0797   -1.2225 H   0  0  0  0  0  0  0  0  0  0  0  0
   -5.0022    2.9361   -0.5172 H   0  0  0  0  0  0  0  0  0  0  0  0
   -4.7095    3.0316    2.5205 H   0  0  0  0  0  0  0  0  0  0  0  0
   -5.5884    1.7837    1.6279 H   0  0  0  0  0  0  0  0  0  0  0  0
   -6.1396    3.4549    1.5858 H   0  0  0  0  0  0  0  0  0  0  0  0
   -3.2618    4.7453    1.2263 H   0  0  0  0  0  0  0  0  0  0  0  0
   -3.4333    4.8314   -0.5305 H   0  0  0  0  0  0  0  0  0  0  0  0
   -4.7999    5.1995    0.5070 H   0  0  0  0  0  0  0  0  0  0  0  0
   -2.1564    0.6365    3.0669 H   0  0  0  0  0  0  0  0  0  0  0  0
  1  2  4  0  0  0  0
  2  3  1  0  0  0  0
  3  4  1  0  0  0  0
  4  5  4  0  0  0  0
  5  6  4  0  0  0  0
  6  7  1  0  0  0  0
  7  8  1  0  0  0  0
  6  9  4  0  0  0  0
  9 10  1  0  0  0  0
 10 11  1  0  0  0  0
  9 12  4  0  0  0  0
  1 13  1  0  0  0  0
  4 13  4  0  0  0  0
 12 13  4  0  0  0  0
  3 14  1  0  0  0  0
 14 15  1  0  0  0  0
 15 16  1  0  0  0  0
 16 17  1  0  0  0  0
 17 18  1  0  0  0  0
 18 19  1  0  0  0  0
 19 20  1  0  0  0  0
 20 21  4  0  0  0  0
 21 22  4  0  0  0  0
 22 23  4  0  0  0  0
 23 24  1  0  0  0  0
 24 25  1  0  0  0  0
 23 26  4  0  0  0  0
 26 27  1  0  0  0  0
 27 28  1  0  0  0  0
 20 29  4  0  0  0  0
 26 29  4  0  0  0  0
 17 30  1  0  0  0  0
  3 31  1  0  0  0  0
 31 32  1  0  0  0  0
 31 33  1  0  0  0  0
  5 34  1  0  0  0  0
  8 35  1  0  0  0  0
  8 36  1  0  0  0  0
  8 37  1  0  0  0  0
 11 38  1  0  0  0  0
 11 39  1  0  0  0  0
 11 40  1  0  0  0  0
 12 41  1  0  0  0  0
 16 42  1  0  0  0  0
 14 43  1  0  0  0  0
 14 44  1  0  0  0  0
 15 45  1  0  0  0  0
 15 46  1  0  0  0  0
  2 47  1  0  0  0  0
 16 48  1  0  0  0  0
 18 49  1  0  0  0  0
 18 50  1  0  0  0  0
 19 51  1  0  0  0  0
 19 52  1  0  0  0  0
 21 53  1  0  0  0  0
 22 54  1  0  0  0  0
 25 55  1  0  0  0  0
 25 56  1  0  0  0  0
 25 57  1  0  0  0  0
 28 58  1  0  0  0  0
 28 59  1  0  0  0  0
 28 60  1  0  0  0  0
 29 61  1  0  0  0  0
 30 62  1  0  0  0  0
 30 63  1  0  0  0  0
 30 64  1  0  0  0  0
 31 65  1  0  0  0  0
 32 66  1  0  0  0  0
 32 67  1  0  0  0  0
 32 68  1  0  0  0  0
 33 69  1  0  0  0  0
 33 70  1  0  0  0  0
 33 71  1  0  0  0  0
  1 72  1  0  0  0  0
M  CHG  1   1   1
M  END
