 xtb: 6.6.1 (8d0f1dd)
          06052419583D

 25 25  0     0  0            999 V2000
    3.3181    1.0413    0.0313 C   0  0  0  0  0  0  0  0  0  0  0  0
    2.4038   -0.0675    0.0066 N   0  0  0  0  0  0  0  0  0  0  0  0
    2.7109   -1.3633   -0.0279 C   0  0  0  0  0  0  0  0  0  0  0  0
    1.5765   -2.1042   -0.0127 N   0  0  0  0  0  0  0  0  0  0  0  0
    0.5114   -1.2466    0.0350 C   0  0  0  0  0  0  0  0  0  0  0  0
    1.0376    0.0420    0.0461 C   0  0  0  0  0  0  0  0  0  0  0  0
    0.1405    1.2057    0.0621 C   0  0  0  0  0  0  0  0  0  0  0  0
    0.5377    2.3580    0.0240 O   0  0  0  0  0  0  0  0  0  0  0  0
   -1.1540    0.8478    0.1122 N   0  0  0  0  0  0  0  0  0  0  0  0
   -3.1408    3.2080   -0.1951 C   0  0  0  0  0  0  0  0  0  0  0  0
   -1.6996   -0.3587    0.1221 C   0  0  0  0  0  0  0  0  0  0  0  0
   -2.8841   -0.5839    0.1692 O   0  0  0  0  0  0  0  0  0  0  0  0
   -0.7990   -1.5087    0.0643 N   0  0  0  0  0  0  0  0  0  0  0  0
   -1.3474   -2.8426    0.0422 C   0  0  0  0  0  0  0  0  0  0  0  0
    3.8115    1.1041    1.0033 H   0  0  0  0  0  0  0  0  0  0  0  0
    4.0773    0.9268   -0.7416 H   0  0  0  0  0  0  0  0  0  0  0  0
    2.7536    1.9602   -0.1342 H   0  0  0  0  0  0  0  0  0  0  0  0
    3.7029   -1.7670   -0.0632 H   0  0  0  0  0  0  0  0  0  0  0  0
   -2.0763    3.3511   -0.2257 H   0  0  0  0  0  0  0  0  0  0  0  0
   -3.7914    3.7921   -0.8175 H   0  0  0  0  0  0  0  0  0  0  0  0
   -3.5527    2.4544    0.4511 H   0  0  0  0  0  0  0  0  0  0  0  0
   -1.0311   -3.4071    0.9216 H   0  0  0  0  0  0  0  0  0  0  0  0
   -1.0488   -3.3678   -0.8665 H   0  0  0  0  0  0  0  0  0  0  0  0
   -2.4338   -2.7429    0.0569 H   0  0  0  0  0  0  0  0  0  0  0  0
    1.5379   -3.1130   -0.0327 H   0  0  0  0  0  0  0  0  0  0  0  0
  1  2  1  0  0  0  0
  2  3  4  0  0  0  0
  3  4  4  0  0  0  0
  4  5  1  0  0  0  0
  2  6  1  0  0  0  0
  5  6  4  0  0  0  0
  6  7  1  0  0  0  0
  7  8  2  0  0  0  0
  7  9  4  0  0  0  0
  9 11  4  0  0  0  0
 11 12  2  0  0  0  0
  5 13  4  0  0  0  0
 11 13  1  0  0  0  0
 13 14  1  0  0  0  0
  1 15  1  0  0  0  0
  1 16  1  0  0  0  0
  1 17  1  0  0  0  0
  3 18  1  0  0  0  0
 10 19  1  0  0  0  0
 10 20  1  0  0  0  0
 10 21  1  0  0  0  0
 14 22  1  0  0  0  0
 14 23  1  0  0  0  0
 14 24  1  0  0  0  0
  4 25  1  0  0  0  0
M  CHG  1   1   1
M  END
