 xtb: 6.6.1 (8d0f1dd)
          04062411143D

 72 72  0     0  0            999 V2000
   -2.0547    2.8696    2.3749 N   0  0  0  0  0  0  0  0  0  0  0  0
   -1.9511    2.2127    1.3175 C   0  0  0  0  0  0  0  0  0  0  0  0
   -3.0774    1.9622    0.3523 C   0  0  0  0  0  0  0  0  0  0  0  0
   -3.4305    0.4834    0.3548 C   0  0  0  0  0  0  0  0  0  0  0  0
   -4.2620   -0.0346   -0.6405 C   0  0  0  0  0  0  0  0  0  0  0  0
   -4.6250   -1.3707   -0.6570 C   0  0  0  0  0  0  0  0  0  0  0  0
   -5.4216   -1.9511   -1.5797 O   0  0  0  0  0  0  0  0  0  0  0  0
   -6.0118   -1.1547   -2.5794 C   0  0  0  0  0  0  0  0  0  0  0  0
   -4.1421   -2.2399    0.3578 C   0  0  0  0  0  0  0  0  0  0  0  0
   -4.5386   -3.5254    0.2582 O   0  0  0  0  0  0  0  0  0  0  0  0
   -4.1712   -4.4339    1.2697 C   0  0  0  0  0  0  0  0  0  0  0  0
   -3.3256   -1.7178    1.3478 C   0  0  0  0  0  0  0  0  0  0  0  0
   -2.9753   -0.3731    1.3450 C   0  0  0  0  0  0  0  0  0  0  0  0
   -2.5408    2.3884   -1.0392 C   0  0  0  0  0  0  0  0  0  0  0  0
   -1.5435    1.4023   -1.6777 C   0  0  0  0  0  0  0  0  0  0  0  0
   -0.2080    1.3970   -1.0398 C   0  0  0  0  0  0  0  0  0  0  0  0
    0.4730    0.3125   -0.6880 N   0  0  0  0  0  0  0  0  0  0  0  0
    1.8581    0.4008   -0.2906 C   0  0  0  0  0  0  0  0  0  0  0  0
    2.7925   -0.1470   -1.3833 C   0  0  0  0  0  0  0  0  0  0  0  0
    4.2304   -0.1417   -0.9151 C   0  0  0  0  0  0  0  0  0  0  0  0
    5.1327    0.6718   -1.5258 C   0  0  0  0  0  0  0  0  0  0  0  0
    6.5331    0.8670   -1.3144 C   0  0  0  0  0  0  0  0  0  0  0  0
    7.2649    0.4190   -0.2711 C   0  0  0  0  0  0  0  0  0  0  0  0
    8.5721    0.5632   -0.0566 O   0  0  0  0  0  0  0  0  0  0  0  0
    9.3667    1.1962   -1.0410 C   0  0  0  0  0  0  0  0  0  0  0  0
    4.3043   -1.9431    0.9401 C   0  0  0  0  0  0  0  0  0  0  0  0
    4.2790   -2.8530    1.8535 O   0  0  0  0  0  0  0  0  0  0  0  0
    5.5192   -3.2194    2.4470 C   0  0  0  0  0  0  0  0  0  0  0  0
    4.4633   -1.0523    0.1286 C   0  0  0  0  0  0  0  0  0  0  0  0
   -0.1105   -1.0070   -0.7239 C   0  0  0  0  0  0  0  0  0  0  0  0
   -4.3706    2.7642    0.6878 C   0  0  0  0  0  0  0  0  0  0  0  0
   -4.9798    2.3159    2.0143 C   0  0  0  0  0  0  0  0  0  0  0  0
   -4.1530    4.2745    0.7061 C   0  0  0  0  0  0  0  0  0  0  0  0
   -4.6422    0.6219   -1.4055 H   0  0  0  0  0  0  0  0  0  0  0  0
   -6.6388   -0.3681   -2.1488 H   0  0  0  0  0  0  0  0  0  0  0  0
   -6.6340   -1.8316   -3.1616 H   0  0  0  0  0  0  0  0  0  0  0  0
   -5.2578   -0.7057   -3.2345 H   0  0  0  0  0  0  0  0  0  0  0  0
   -4.5405   -4.1146    2.2487 H   0  0  0  0  0  0  0  0  0  0  0  0
   -4.6390   -5.3781    0.9981 H   0  0  0  0  0  0  0  0  0  0  0  0
   -3.0854   -4.5677    1.3144 H   0  0  0  0  0  0  0  0  0  0  0  0
   -2.9603   -2.3489    2.1415 H   0  0  0  0  0  0  0  0  0  0  0  0
   -2.3597    0.0035    2.1472 H   0  0  0  0  0  0  0  0  0  0  0  0
   -3.3837    2.5005   -1.7204 H   0  0  0  0  0  0  0  0  0  0  0  0
   -2.0631    3.3644   -0.9453 H   0  0  0  0  0  0  0  0  0  0  0  0
   -1.9793    0.4055   -1.7030 H   0  0  0  0  0  0  0  0  0  0  0  0
   -1.4038    1.7341   -2.7147 H   0  0  0  0  0  0  0  0  0  0  0  0
   -0.9998    1.7798    0.9530 H   0  0  0  0  0  0  0  0  0  0  0  0
    0.3202    2.3373   -0.9834 H   0  0  0  0  0  0  0  0  0  0  0  0
    2.0078   -0.1768    0.6265 H   0  0  0  0  0  0  0  0  0  0  0  0
    2.1125    1.4431   -0.0880 H   0  0  0  0  0  0  0  0  0  0  0  0
    2.6881    0.4601   -2.2835 H   0  0  0  0  0  0  0  0  0  0  0  0
    2.5002   -1.1722   -1.6209 H   0  0  0  0  0  0  0  0  0  0  0  0
    4.7413    1.2600   -2.3463 H   0  0  0  0  0  0  0  0  0  0  0  0
    7.0173    1.4578   -2.0801 H   0  0  0  0  0  0  0  0  0  0  0  0
   10.3908    1.1449   -0.6740 H   0  0  0  0  0  0  0  0  0  0  0  0
    9.0791    2.2440   -1.1709 H   0  0  0  0  0  0  0  0  0  0  0  0
    9.2929    0.6749   -2.0006 H   0  0  0  0  0  0  0  0  0  0  0  0
    5.2785   -3.9530    3.2134 H   0  0  0  0  0  0  0  0  0  0  0  0
    6.1895   -3.6618    1.7053 H   0  0  0  0  0  0  0  0  0  0  0  0
    6.0048   -2.3528    2.9027 H   0  0  0  0  0  0  0  0  0  0  0  0
    6.8008   -0.1339    0.5398 H   0  0  0  0  0  0  0  0  0  0  0  0
   -0.2542   -1.3504   -1.7508 H   0  0  0  0  0  0  0  0  0  0  0  0
   -1.0767   -1.0107   -0.2142 H   0  0  0  0  0  0  0  0  0  0  0  0
    0.5516   -1.7033   -0.2148 H   0  0  0  0  0  0  0  0  0  0  0  0
   -5.0900    2.5338   -0.1068 H   0  0  0  0  0  0  0  0  0  0  0  0
   -4.2961    2.5308    2.8291 H   0  0  0  0  0  0  0  0  0  0  0  0
   -5.1989    1.2510    2.0072 H   0  0  0  0  0  0  0  0  0  0  0  0
   -5.9075    2.8544    2.1888 H   0  0  0  0  0  0  0  0  0  0  0  0
   -3.4222    4.5404    1.4635 H   0  0  0  0  0  0  0  0  0  0  0  0
   -3.8234    4.6500   -0.2590 H   0  0  0  0  0  0  0  0  0  0  0  0
   -5.0907    4.7662    0.9517 H   0  0  0  0  0  0  0  0  0  0  0  0
   -1.2178    2.9994    2.9350 H   0  0  0  0  0  0  0  0  0  0  0  0
  1  2  2  0  0  0  0
  2  3  1  0  0  0  0
  3  4  1  0  0  0  0
  4  5  4  0  0  0  0
  5  6  4  0  0  0  0
  6  7  1  0  0  0  0
  7  8  1  0  0  0  0
  6  9  4  0  0  0  0
  9 10  1  0  0  0  0
 10 11  1  0  0  0  0
  9 12  4  0  0  0  0
  4 13  4  0  0  0  0
 12 13  4  0  0  0  0
  3 14  1  0  0  0  0
 14 15  1  0  0  0  0
 15 16  1  0  0  0  0
 16 17  4  0  0  0  0
 17 18  1  0  0  0  0
 18 19  1  0  0  0  0
 19 20  1  0  0  0  0
 20 21  2  0  0  0  0
 21 22  4  0  0  0  0
 22 23  2  0  0  0  0
 23 24  1  0  0  0  0
 24 25  1  0  0  0  0
 26 27  1  0  0  0  0
 27 28  1  0  0  0  0
 20 29  1  0  0  0  0
 26 29  3  0  0  0  0
 17 30  1  0  0  0  0
  3 31  1  0  0  0  0
 31 32  1  0  0  0  0
 31 33  1  0  0  0  0
  5 34  1  0  0  0  0
  8 35  1  0  0  0  0
  8 36  1  0  0  0  0
  8 37  1  0  0  0  0
 11 38  1  0  0  0  0
 11 39  1  0  0  0  0
 11 40  1  0  0  0  0
 12 41  1  0  0  0  0
 13 42  1  0  0  0  0
 14 43  1  0  0  0  0
 14 44  1  0  0  0  0
 15 45  1  0  0  0  0
 15 46  1  0  0  0  0
  2 47  1  0  0  0  0
 16 48  1  0  0  0  0
 18 49  1  0  0  0  0
 18 50  1  0  0  0  0
 19 51  1  0  0  0  0
 19 52  1  0  0  0  0
 21 53  1  0  0  0  0
 22 54  1  0  0  0  0
 25 55  1  0  0  0  0
 25 56  1  0  0  0  0
 25 57  1  0  0  0  0
 28 58  1  0  0  0  0
 28 59  1  0  0  0  0
 28 60  1  0  0  0  0
 23 61  1  0  0  0  0
 30 62  1  0  0  0  0
 30 63  1  0  0  0  0
 30 64  1  0  0  0  0
 31 65  1  0  0  0  0
 32 66  1  0  0  0  0
 32 67  1  0  0  0  0
 32 68  1  0  0  0  0
 33 69  1  0  0  0  0
 33 70  1  0  0  0  0
 33 71  1  0  0  0  0
  1 72  1  0  0  0  0
M  CHG  1   1   1
M  END
