 xtb: 6.6.1 (8d0f1dd)
          06052419583D

 25 26  0     0  0            999 V2000
    3.1215    1.2015   -0.1376 C   0  0  0  0  0  0  0  0  0  0  0  0
    2.1483    0.1429   -0.0706 N   0  0  0  0  0  0  0  0  0  0  0  0
    2.3979   -1.1312    0.2085 C   0  0  0  0  0  0  0  0  0  0  0  0
    1.2402   -1.8171    0.2157 N   0  0  0  0  0  0  0  0  0  0  0  0
    0.2240   -0.9457   -0.0742 C   0  0  0  0  0  0  0  0  0  0  0  0
    0.8060    0.2881   -0.2721 C   0  0  0  0  0  0  0  0  0  0  0  0
    0.0898    1.5588   -0.6273 C   0  0  0  0  0  0  0  0  0  0  0  0
    0.4147    2.6382   -0.1559 O   0  0  0  0  0  0  0  0  0  0  0  0
   -1.5288    1.0404    0.1719 N   0  0  0  0  0  0  0  0  0  0  0  0
   -2.1806    2.0119    0.6806 C   0  0  0  0  0  0  0  0  0  0  0  0
   -2.0693   -0.2617    0.0913 C   0  0  0  0  0  0  0  0  0  0  0  0
   -3.2395   -0.5061    0.1749 O   0  0  0  0  0  0  0  0  0  0  0  0
   -1.1074   -1.2500   -0.0826 N   0  0  0  0  0  0  0  0  0  0  0  0
   -1.5387   -2.6359   -0.1298 C   0  0  0  0  0  0  0  0  0  0  0  0
    3.8834    1.0519    0.6250 H   0  0  0  0  0  0  0  0  0  0  0  0
    3.5987    1.2205   -1.1190 H   0  0  0  0  0  0  0  0  0  0  0  0
    2.6164    2.1539    0.0264 H   0  0  0  0  0  0  0  0  0  0  0  0
    3.3658   -1.5529    0.3948 H   0  0  0  0  0  0  0  0  0  0  0  0
   -1.6855    2.9755    0.6929 H   0  0  0  0  0  0  0  0  0  0  0  0
   -0.3724    1.4896   -1.6386 H   0  0  0  0  0  0  0  0  0  0  0  0
   -3.1740    1.8928    1.0938 H   0  0  0  0  0  0  0  0  0  0  0  0
   -1.3318   -3.1466    0.8127 H   0  0  0  0  0  0  0  0  0  0  0  0
   -1.0493   -3.1522   -0.9550 H   0  0  0  0  0  0  0  0  0  0  0  0
   -2.6155   -2.6419   -0.2926 H   0  0  0  0  0  0  0  0  0  0  0  0
    1.1463   -2.8064    0.3982 H   0  0  0  0  0  0  0  0  0  0  0  0
  1  2  1  0  0  0  0
  2  3  4  0  0  0  0
  3  4  4  0  0  0  0
  4  5  1  0  0  0  0
  2  6  4  0  0  0  0
  5  6  4  0  0  0  0
  6  7  1  0  0  0  0
  7  8  2  0  0  0  0
  7  9  1  0  0  0  0
  9 10  2  0  0  0  0
  9 11  1  0  0  0  0
 11 12  2  0  0  0  0
  5 13  1  0  0  0  0
 11 13  1  0  0  0  0
 13 14  1  0  0  0  0
  1 15  1  0  0  0  0
  1 16  1  0  0  0  0
  1 17  1  0  0  0  0
  3 18  1  0  0  0  0
 10 19  1  0  0  0  0
  7 20  1  0  0  0  0
 10 21  1  0  0  0  0
 14 22  1  0  0  0  0
 14 23  1  0  0  0  0
 14 24  1  0  0  0  0
  4 25  1  0  0  0  0
M  CHG  1   1   1
M  END
