 xtb: 6.6.1 (8d0f1dd)
          06052420003D

 25 25  0     0  0            999 V2000
    2.9577    1.7964    0.0920 C   0  0  0  0  0  0  0  0  0  0  0  0
    2.3445    0.7130   -0.1194 N   0  0  0  0  0  0  0  0  0  0  0  0
    2.7144   -2.0331   -0.1880 C   0  0  0  0  0  0  0  0  0  0  0  0
    1.4174   -1.9734    0.0287 N   0  0  0  0  0  0  0  0  0  0  0  0
    0.5767   -0.8842    0.0074 C   0  0  0  0  0  0  0  0  0  0  0  0
    1.0246    0.4363   -0.0310 C   0  0  0  0  0  0  0  0  0  0  0  0
    0.0496    1.5419   -0.0385 C   0  0  0  0  0  0  0  0  0  0  0  0
    0.3879    2.7046   -0.0517 O   0  0  0  0  0  0  0  0  0  0  0  0
   -1.2753    1.1593   -0.0177 N   0  0  0  0  0  0  0  0  0  0  0  0
   -2.2968    2.1968   -0.0355 C   0  0  0  0  0  0  0  0  0  0  0  0
   -1.7374   -0.1352    0.0342 C   0  0  0  0  0  0  0  0  0  0  0  0
   -2.9087   -0.3982    0.0616 O   0  0  0  0  0  0  0  0  0  0  0  0
   -0.7651   -1.1505    0.0544 N   0  0  0  0  0  0  0  0  0  0  0  0
   -1.2751   -2.5115    0.0785 C   0  0  0  0  0  0  0  0  0  0  0  0
    3.2621   -1.1436   -0.4388 H   0  0  0  0  0  0  0  0  0  0  0  0
    4.0051    1.8345   -0.1719 H   0  0  0  0  0  0  0  0  0  0  0  0
    2.5023    2.6896    0.5222 H   0  0  0  0  0  0  0  0  0  0  0  0
    3.2004   -2.9890   -0.1197 H   0  0  0  0  0  0  0  0  0  0  0  0
   -1.7996    3.1636   -0.0605 H   0  0  0  0  0  0  0  0  0  0  0  0
   -2.9298    2.0745   -0.9144 H   0  0  0  0  0  0  0  0  0  0  0  0
   -2.9231    2.1155    0.8529 H   0  0  0  0  0  0  0  0  0  0  0  0
   -1.0257   -3.0140    1.0159 H   0  0  0  0  0  0  0  0  0  0  0  0
   -0.9219   -3.0814   -0.7822 H   0  0  0  0  0  0  0  0  0  0  0  0
   -2.3628   -2.4423    0.0181 H   0  0  0  0  0  0  0  0  0  0  0  0
    0.9389   -2.8513    0.2347 H   0  0  0  0  0  0  0  0  0  0  0  0
  1  2  2  0  0  0  0
  3  4  4  0  0  0  0
  4  5  1  0  0  0  0
  2  6  4  0  0  0  0
  5  6  4  0  0  0  0
  6  7  1  0  0  0  0
  7  8  2  0  0  0  0
  7  9  1  0  0  0  0
  9 10  1  0  0  0  0
  9 11  1  0  0  0  0
 11 12  2  0  0  0  0
  5 13  1  0  0  0  0
 11 13  1  0  0  0  0
 13 14  1  0  0  0  0
  3 15  1  0  0  0  0
  1 16  1  0  0  0  0
  1 17  1  0  0  0  0
  3 18  1  0  0  0  0
 10 19  1  0  0  0  0
 10 20  1  0  0  0  0
 10 21  1  0  0  0  0
 14 22  1  0  0  0  0
 14 23  1  0  0  0  0
 14 24  1  0  0  0  0
  4 25  1  0  0  0  0
M  CHG  1   1   1
M  END
