 xtb: 6.6.1 (8d0f1dd)
          06052419583D

 25 24  0     0  0            999 V2000
    3.3424    2.0152   -0.1464 C   0  0  0  0  0  0  0  0  0  0  0  0
    2.9187    0.6448   -0.2974 N   0  0  0  0  0  0  0  0  0  0  0  0
    3.7883   -0.2862   -0.5168 C   0  0  0  0  0  0  0  0  0  0  0  0
   -2.9721   -4.7060    0.7885 N   0  0  0  0  0  0  0  0  0  0  0  0
    1.0515   -0.9115   -0.1440 C   0  0  0  0  0  0  0  0  0  0  0  0
    1.5745    0.3378   -0.1846 C   0  0  0  0  0  0  0  0  0  0  0  0
    0.4779    1.3451   -0.1096 C   0  0  0  0  0  0  0  0  0  0  0  0
    0.7031    2.5339   -0.1571 O   0  0  0  0  0  0  0  0  0  0  0  0
   -0.8087    0.8466    0.0110 N   0  0  0  0  0  0  0  0  0  0  0  0
   -1.8983    1.8110    0.0767 C   0  0  0  0  0  0  0  0  0  0  0  0
   -1.1860   -0.4899    0.0788 C   0  0  0  0  0  0  0  0  0  0  0  0
   -2.3163   -0.8614    0.2199 O   0  0  0  0  0  0  0  0  0  0  0  0
   -0.0993   -1.3436   -0.0305 N   0  0  0  0  0  0  0  0  0  0  0  0
   -3.5661   -3.7657    0.2462 C   0  0  0  0  0  0  0  0  0  0  0  0
    3.0048    2.4104    0.8125 H   0  0  0  0  0  0  0  0  0  0  0  0
    4.4263    2.0783   -0.2061 H   0  0  0  0  0  0  0  0  0  0  0  0
    2.8955    2.6384   -0.9226 H   0  0  0  0  0  0  0  0  0  0  0  0
    4.8353   -0.0488   -0.5810 H   0  0  0  0  0  0  0  0  0  0  0  0
   -1.4685    2.8109    0.0565 H   0  0  0  0  0  0  0  0  0  0  0  0
   -2.5650    1.6719   -0.7743 H   0  0  0  0  0  0  0  0  0  0  0  0
   -2.4668    1.6612    0.9940 H   0  0  0  0  0  0  0  0  0  0  0  0
   -4.3680   -3.9941   -0.4434 H   0  0  0  0  0  0  0  0  0  0  0  0
   -3.3836   -2.6990    0.4247 H   0  0  0  0  0  0  0  0  0  0  0  0
   -2.2273   -4.5716    1.4674 H   0  0  0  0  0  0  0  0  0  0  0  0
    3.4679   -1.3095   -0.6311 H   0  0  0  0  0  0  0  0  0  0  0  0
  1  2  1  0  0  0  0
  2  3  2  0  0  0  0
  2  6  1  0  0  0  0
  5  6  4  0  0  0  0
  6  7  1  0  0  0  0
  7  8  2  0  0  0  0
  7  9  1  0  0  0  0
  9 10  1  0  0  0  0
  9 11  1  0  0  0  0
 11 12  2  0  0  0  0
  5 13  2  0  0  0  0
 11 13  1  0  0  0  0
  4 14  2  0  0  0  0
  1 15  1  0  0  0  0
  1 16  1  0  0  0  0
  1 17  1  0  0  0  0
  3 18  1  0  0  0  0
 10 19  1  0  0  0  0
 10 20  1  0  0  0  0
 10 21  1  0  0  0  0
 14 22  1  0  0  0  0
 14 23  1  0  0  0  0
  4 24  1  0  0  0  0
  3 25  1  0  0  0  0
M  CHG  1   1   1
M  END
