 xtb: 6.6.1 (8d0f1dd)
          04062411113D

 72 72  0     0  0            999 V2000
   -1.3405    4.4331    2.2213 N   0  0  0  0  0  0  0  0  0  0  0  0
   -1.0520    4.1352    1.0004 C   0  0  0  0  0  0  0  0  0  0  0  0
   -1.9667    3.5566    0.1148 C   0  0  0  0  0  0  0  0  0  0  0  0
   -3.7637   -0.5270    0.0578 C   0  0  0  0  0  0  0  0  0  0  0  0
   -4.7722   -0.9106   -0.8143 C   0  0  0  0  0  0  0  0  0  0  0  0
   -5.3835   -2.1503   -0.6827 C   0  0  0  0  0  0  0  0  0  0  0  0
   -6.3616   -2.6310   -1.4712 O   0  0  0  0  0  0  0  0  0  0  0  0
   -6.8621   -1.8343   -2.5196 C   0  0  0  0  0  0  0  0  0  0  0  0
   -4.9684   -3.0229    0.3644 C   0  0  0  0  0  0  0  0  0  0  0  0
   -5.6201   -4.1982    0.4191 O   0  0  0  0  0  0  0  0  0  0  0  0
   -5.2994   -5.1204    1.4345 C   0  0  0  0  0  0  0  0  0  0  0  0
   -3.9571   -2.6179    1.2259 C   0  0  0  0  0  0  0  0  0  0  0  0
   -3.3572   -1.3772    1.0706 C   0  0  0  0  0  0  0  0  0  0  0  0
   -1.5161    3.2024   -1.2678 C   0  0  0  0  0  0  0  0  0  0  0  0
   -1.1022    1.7515   -1.2519 C   0  0  0  0  0  0  0  0  0  0  0  0
    0.0299    1.3505   -0.6454 C   0  0  0  0  0  0  0  0  0  0  0  0
    0.4722    0.0764   -0.4955 N   0  0  0  0  0  0  0  0  0  0  0  0
    1.8378   -0.1441   -0.1005 C   0  0  0  0  0  0  0  0  0  0  0  0
    2.7949   -0.1981   -1.3139 C   0  0  0  0  0  0  0  0  0  0  0  0
    4.2182   -0.0368   -0.8706 C   0  0  0  0  0  0  0  0  0  0  0  0
    4.8698    1.1796   -1.0156 C   0  0  0  0  0  0  0  0  0  0  0  0
    6.1780    1.3423   -0.5899 C   0  0  0  0  0  0  0  0  0  0  0  0
    6.8630    0.2904    0.0039 C   0  0  0  0  0  0  0  0  0  0  0  0
    8.1307    0.3318    0.4481 O   0  0  0  0  0  0  0  0  0  0  0  0
    8.8860    1.5085    0.2699 C   0  0  0  0  0  0  0  0  0  0  0  0
    6.1978   -0.9582    0.1735 C   0  0  0  0  0  0  0  0  0  0  0  0
    6.9298   -1.9191    0.7661 O   0  0  0  0  0  0  0  0  0  0  0  0
    6.3607   -3.1890    0.9807 C   0  0  0  0  0  0  0  0  0  0  0  0
    4.8909   -1.0976   -0.2687 C   0  0  0  0  0  0  0  0  0  0  0  0
   -0.2351   -1.0238   -1.1002 C   0  0  0  0  0  0  0  0  0  0  0  0
   -3.3863    3.2964    0.5030 C   0  0  0  0  0  0  0  0  0  0  0  0
   -3.5176    2.5833    1.8501 C   0  0  0  0  0  0  0  0  0  0  0  0
   -4.1339    4.6392    0.5608 C   0  0  0  0  0  0  0  0  0  0  0  0
   -5.0838   -0.2355   -1.5953 H   0  0  0  0  0  0  0  0  0  0  0  0
   -7.3127   -0.9118   -2.1408 H   0  0  0  0  0  0  0  0  0  0  0  0
   -7.6281   -2.4376   -3.0039 H   0  0  0  0  0  0  0  0  0  0  0  0
   -6.0807   -1.5896   -3.2460 H   0  0  0  0  0  0  0  0  0  0  0  0
   -5.4857   -4.7022    2.4284 H   0  0  0  0  0  0  0  0  0  0  0  0
   -5.9564   -5.9727    1.2727 H   0  0  0  0  0  0  0  0  0  0  0  0
   -4.2573   -5.4469    1.3647 H   0  0  0  0  0  0  0  0  0  0  0  0
   -3.6343   -3.2634    2.0265 H   0  0  0  0  0  0  0  0  0  0  0  0
   -2.5746   -1.0778    1.7510 H   0  0  0  0  0  0  0  0  0  0  0  0
   -2.3289    3.3419   -1.9824 H   0  0  0  0  0  0  0  0  0  0  0  0
   -0.6738    3.8327   -1.5678 H   0  0  0  0  0  0  0  0  0  0  0  0
   -3.3015    0.4397   -0.0554 H   0  0  0  0  0  0  0  0  0  0  0  0
   -1.7725    1.0435   -1.7108 H   0  0  0  0  0  0  0  0  0  0  0  0
   -0.0566    4.3418    0.5828 H   0  0  0  0  0  0  0  0  0  0  0  0
    0.6766    2.0932   -0.1979 H   0  0  0  0  0  0  0  0  0  0  0  0
    1.9003   -1.0797    0.4599 H   0  0  0  0  0  0  0  0  0  0  0  0
    2.1491    0.6685    0.5600 H   0  0  0  0  0  0  0  0  0  0  0  0
    2.5300    0.6116   -1.9963 H   0  0  0  0  0  0  0  0  0  0  0  0
    2.6633   -1.1460   -1.8379 H   0  0  0  0  0  0  0  0  0  0  0  0
    4.3602    2.0113   -1.4779 H   0  0  0  0  0  0  0  0  0  0  0  0
    6.6596    2.2967   -0.7259 H   0  0  0  0  0  0  0  0  0  0  0  0
    8.4604    2.3463    0.8305 H   0  0  0  0  0  0  0  0  0  0  0  0
    8.9628    1.7775   -0.7877 H   0  0  0  0  0  0  0  0  0  0  0  0
    9.8767    1.2811    0.6582 H   0  0  0  0  0  0  0  0  0  0  0  0
    7.1364   -3.7785    1.4658 H   0  0  0  0  0  0  0  0  0  0  0  0
    5.4869   -3.1299    1.6374 H   0  0  0  0  0  0  0  0  0  0  0  0
    6.0792   -3.6670    0.0374 H   0  0  0  0  0  0  0  0  0  0  0  0
    4.3830   -2.0427   -0.1594 H   0  0  0  0  0  0  0  0  0  0  0  0
   -0.2101   -0.9721   -2.1934 H   0  0  0  0  0  0  0  0  0  0  0  0
   -1.2780   -1.0235   -0.7764 H   0  0  0  0  0  0  0  0  0  0  0  0
    0.2220   -1.9588   -0.7836 H   0  0  0  0  0  0  0  0  0  0  0  0
   -3.8551    2.6834   -0.2761 H   0  0  0  0  0  0  0  0  0  0  0  0
   -3.1180    3.2188    2.6361 H   0  0  0  0  0  0  0  0  0  0  0  0
   -2.9651    1.6464    1.8530 H   0  0  0  0  0  0  0  0  0  0  0  0
   -4.5646    2.3730    2.0559 H   0  0  0  0  0  0  0  0  0  0  0  0
   -3.6962    5.2653    1.3332 H   0  0  0  0  0  0  0  0  0  0  0  0
   -4.0735    5.1596   -0.3921 H   0  0  0  0  0  0  0  0  0  0  0  0
   -5.1800    4.4649    0.7983 H   0  0  0  0  0  0  0  0  0  0  0  0
   -0.6169    4.8818    2.7691 H   0  0  0  0  0  0  0  0  0  0  0  0
  1  2  2  0  0  0  0
  2  3  4  0  0  0  0
  4  5  4  0  0  0  0
  5  6  4  0  0  0  0
  6  7  1  0  0  0  0
  7  8  1  0  0  0  0
  6  9  4  0  0  0  0
  9 10  1  0  0  0  0
 10 11  1  0  0  0  0
  9 12  4  0  0  0  0
  4 13  4  0  0  0  0
 12 13  4  0  0  0  0
  3 14  1  0  0  0  0
 14 15  1  0  0  0  0
 15 16  2  0  0  0  0
 16 17  4  0  0  0  0
 17 18  1  0  0  0  0
 18 19  1  0  0  0  0
 19 20  1  0  0  0  0
 20 21  4  0  0  0  0
 21 22  4  0  0  0  0
 22 23  4  0  0  0  0
 23 24  1  0  0  0  0
 24 25  1  0  0  0  0
 23 26  4  0  0  0  0
 26 27  1  0  0  0  0
 27 28  1  0  0  0  0
 20 29  4  0  0  0  0
 26 29  4  0  0  0  0
 17 30  1  0  0  0  0
  3 31  1  0  0  0  0
 31 32  1  0  0  0  0
 31 33  1  0  0  0  0
  5 34  1  0  0  0  0
  8 35  1  0  0  0  0
  8 36  1  0  0  0  0
  8 37  1  0  0  0  0
 11 38  1  0  0  0  0
 11 39  1  0  0  0  0
 11 40  1  0  0  0  0
 12 41  1  0  0  0  0
 13 42  1  0  0  0  0
 14 43  1  0  0  0  0
 14 44  1  0  0  0  0
  4 45  1  0  0  0  0
 15 46  1  0  0  0  0
  2 47  1  0  0  0  0
 16 48  1  0  0  0  0
 18 49  1  0  0  0  0
 18 50  1  0  0  0  0
 19 51  1  0  0  0  0
 19 52  1  0  0  0  0
 21 53  1  0  0  0  0
 22 54  1  0  0  0  0
 25 55  1  0  0  0  0
 25 56  1  0  0  0  0
 25 57  1  0  0  0  0
 28 58  1  0  0  0  0
 28 59  1  0  0  0  0
 28 60  1  0  0  0  0
 29 61  1  0  0  0  0
 30 62  1  0  0  0  0
 30 63  1  0  0  0  0
 30 64  1  0  0  0  0
 31 65  1  0  0  0  0
 32 66  1  0  0  0  0
 32 67  1  0  0  0  0
 32 68  1  0  0  0  0
 33 69  1  0  0  0  0
 33 70  1  0  0  0  0
 33 71  1  0  0  0  0
  1 72  1  0  0  0  0
M  CHG  1   1   1
M  END
