 xtb: 6.6.1 (8d0f1dd)
          06052419573D

 25 24  0     0  0            999 V2000
    3.6971    0.7896   -0.1204 C   0  0  0  0  0  0  0  0  0  0  0  0
    3.2363   -0.5853   -0.0658 N   0  0  0  0  0  0  0  0  0  0  0  0
    3.6411   -1.8124    0.0843 C   0  0  0  0  0  0  0  0  0  0  0  0
    2.7268   -2.8780    0.1102 N   0  0  0  0  0  0  0  0  0  0  0  0
    1.4486   -2.7649    0.0685 C   0  0  0  0  0  0  0  0  0  0  0  0
    2.3206    0.3128   -0.3097 C   0  0  0  0  0  0  0  0  0  0  0  0
   -1.5797    1.6766    0.2534 C   0  0  0  0  0  0  0  0  0  0  0  0
   -0.7983    0.8068    0.2261 O   0  0  0  0  0  0  0  0  0  0  0  0
   -2.4139    2.4795    0.4566 N   0  0  0  0  0  0  0  0  0  0  0  0
   -3.2317    3.5813    0.1470 C   0  0  0  0  0  0  0  0  0  0  0  0
   -3.6309   -0.4138   -0.5253 C   0  0  0  0  0  0  0  0  0  0  0  0
   -4.5439    0.2399   -0.6472 O   0  0  0  0  0  0  0  0  0  0  0  0
    0.3337   -2.6129   -0.3073 N   0  0  0  0  0  0  0  0  0  0  0  0
   -1.0111   -2.4316    0.0226 C   0  0  0  0  0  0  0  0  0  0  0  0
    4.0272    1.2277    0.8178 H   0  0  0  0  0  0  0  0  0  0  0  0
    4.2879    1.0820   -0.9815 H   0  0  0  0  0  0  0  0  0  0  0  0
    1.2879    0.4786   -0.1353 H   0  0  0  0  0  0  0  0  0  0  0  0
    4.6799   -2.0487    0.2083 H   0  0  0  0  0  0  0  0  0  0  0  0
   -2.6733    4.5090    0.2791 H   0  0  0  0  0  0  0  0  0  0  0  0
   -3.5979    3.5189   -0.8796 H   0  0  0  0  0  0  0  0  0  0  0  0
   -4.0773    3.5719    0.8348 H   0  0  0  0  0  0  0  0  0  0  0  0
   -1.2608   -2.8507    0.9970 H   0  0  0  0  0  0  0  0  0  0  0  0
   -1.6138   -2.8960   -0.7549 H   0  0  0  0  0  0  0  0  0  0  0  0
   -1.2282   -1.3610    0.0273 H   0  0  0  0  0  0  0  0  0  0  0  0
    3.1340   -3.8012    0.2253 H   0  0  0  0  0  0  0  0  0  0  0  0
  1  2  1  0  0  0  0
  2  3  4  0  0  0  0
  3  4  1  0  0  0  0
  4  5  4  0  0  0  0
  1  6  1  0  0  0  0
  2  6  4  0  0  0  0
  7  8  2  0  0  0  0
  7  9  2  0  0  0  0
  8  9  1  0  0  0  0
  9 10  1  0  0  0  0
 11 12  3  0  0  0  0
  5 13  2  0  0  0  0
 13 14  1  0  0  0  0
  1 15  1  0  0  0  0
  1 16  1  0  0  0  0
  6 17  1  0  0  0  0
  3 18  1  0  0  0  0
 10 19  1  0  0  0  0
 10 20  1  0  0  0  0
 10 21  1  0  0  0  0
 14 22  1  0  0  0  0
 14 23  1  0  0  0  0
 14 24  1  0  0  0  0
  4 25  1  0  0  0  0
M  CHG  1   1   1
M  END
