 xtb: 6.6.1 (8d0f1dd)
          04062411143D

 72 72  0     0  0            999 V2000
   -1.8715    2.8473    2.2395 N   0  0  0  0  0  0  0  0  0  0  0  0
   -1.8243    2.1374    1.2129 C   0  0  0  0  0  0  0  0  0  0  0  0
   -2.9712    1.9262    0.2637 C   0  0  0  0  0  0  0  0  0  0  0  0
   -3.4342    0.4792    0.3369 C   0  0  0  0  0  0  0  0  0  0  0  0
   -4.3496   -0.0034   -0.6008 C   0  0  0  0  0  0  0  0  0  0  0  0
   -4.8200   -1.3047   -0.5503 C   0  0  0  0  0  0  0  0  0  0  0  0
   -5.7113   -1.8449   -1.4078 O   0  0  0  0  0  0  0  0  0  0  0  0
   -6.3122   -1.0264   -2.3833 C   0  0  0  0  0  0  0  0  0  0  0  0
   -4.3552   -2.1778    0.4696 C   0  0  0  0  0  0  0  0  0  0  0  0
   -4.8610   -3.4277    0.4388 O   0  0  0  0  0  0  0  0  0  0  0  0
   -4.5225   -4.3284    1.4672 C   0  0  0  0  0  0  0  0  0  0  0  0
   -3.4470   -1.6930    1.3968 C   0  0  0  0  0  0  0  0  0  0  0  0
   -2.9955   -0.3804    1.3317 C   0  0  0  0  0  0  0  0  0  0  0  0
   -2.4126    2.2359   -1.1501 C   0  0  0  0  0  0  0  0  0  0  0  0
   -1.4817    1.1508   -1.7213 C   0  0  0  0  0  0  0  0  0  0  0  0
   -0.1487    1.1086   -1.0799 C   0  0  0  0  0  0  0  0  0  0  0  0
    0.4923    0.0053   -0.7062 N   0  0  0  0  0  0  0  0  0  0  0  0
    1.8827    0.0584   -0.3224 C   0  0  0  0  0  0  0  0  0  0  0  0
    2.8052   -0.4541   -1.4460 C   0  0  0  0  0  0  0  0  0  0  0  0
    4.2445   -0.2658   -1.0563 C   0  0  0  0  0  0  0  0  0  0  0  0
    4.9309    0.8880   -1.4466 C   0  0  0  0  0  0  0  0  0  0  0  0
    6.2353    1.0543   -1.0763 C   0  0  0  0  0  0  0  0  0  0  0  0
    6.8977    0.1184   -0.3072 C   0  0  0  0  0  0  0  0  0  0  0  0
    8.1832    0.2560    0.1076 O   0  0  0  0  0  0  0  0  0  0  0  0
    8.9163    1.2510   -0.3042 C   0  0  0  0  0  0  0  0  0  0  0  0
    6.2157   -1.0591    0.1115 C   0  0  0  0  0  0  0  0  0  0  0  0
    6.9396   -1.9201    0.8521 O   0  0  0  0  0  0  0  0  0  0  0  0
    6.3488   -3.1195    1.2938 C   0  0  0  0  0  0  0  0  0  0  0  0
    4.8927   -1.2207   -0.2780 C   0  0  0  0  0  0  0  0  0  0  0  0
   -0.1344   -1.2943   -0.7452 C   0  0  0  0  0  0  0  0  0  0  0  0
   -4.1954    2.8423    0.5622 C   0  0  0  0  0  0  0  0  0  0  0  0
   -4.8281    2.5078    1.9110 C   0  0  0  0  0  0  0  0  0  0  0  0
   -3.8614    4.3303    0.5045 C   0  0  0  0  0  0  0  0  0  0  0  0
   -4.7115    0.6551   -1.3728 H   0  0  0  0  0  0  0  0  0  0  0  0
   -6.8381   -0.1812   -1.9290 H   0  0  0  0  0  0  0  0  0  0  0  0
   -7.0304   -1.6631   -2.8960 H   0  0  0  0  0  0  0  0  0  0  0  0
   -5.5785   -0.6563   -3.1071 H   0  0  0  0  0  0  0  0  0  0  0  0
   -4.8131   -3.9432    2.4490 H   0  0  0  0  0  0  0  0  0  0  0  0
   -5.0830   -5.2368    1.2558 H   0  0  0  0  0  0  0  0  0  0  0  0
   -3.4515   -4.5558    1.4660 H   0  0  0  0  0  0  0  0  0  0  0  0
   -3.0907   -2.3271    2.1924 H   0  0  0  0  0  0  0  0  0  0  0  0
   -2.3140   -0.0301    2.0914 H   0  0  0  0  0  0  0  0  0  0  0  0
   -3.2489    2.3576   -1.8376 H   0  0  0  0  0  0  0  0  0  0  0  0
   -1.8748    3.1841   -1.1152 H   0  0  0  0  0  0  0  0  0  0  0  0
   -1.9791    0.1835   -1.6795 H   0  0  0  0  0  0  0  0  0  0  0  0
   -1.3241    1.3999   -2.7791 H   0  0  0  0  0  0  0  0  0  0  0  0
   -0.9094    1.6196    0.8642 H   0  0  0  0  0  0  0  0  0  0  0  0
    0.4171    2.0281   -1.0462 H   0  0  0  0  0  0  0  0  0  0  0  0
    2.0324   -0.5472    0.5760 H   0  0  0  0  0  0  0  0  0  0  0  0
    2.1535    1.0899   -0.0882 H   0  0  0  0  0  0  0  0  0  0  0  0
    2.5921    0.1072   -2.3573 H   0  0  0  0  0  0  0  0  0  0  0  0
    2.6031   -1.5095   -1.6355 H   0  0  0  0  0  0  0  0  0  0  0  0
    4.4328    1.6318   -2.0505 H   0  0  0  0  0  0  0  0  0  0  0  0
    7.2633    3.1606    1.1189 H   0  0  0  0  0  0  0  0  0  0  0  0
    7.8967    2.7902    0.8131 H   0  0  0  0  0  0  0  0  0  0  0  0
    8.5868    1.8878   -1.1121 H   0  0  0  0  0  0  0  0  0  0  0  0
    9.9069    1.2919    0.1112 H   0  0  0  0  0  0  0  0  0  0  0  0
    7.1241   -3.6354    1.8573 H   0  0  0  0  0  0  0  0  0  0  0  0
    5.4931   -2.9278    1.9484 H   0  0  0  0  0  0  0  0  0  0  0  0
    6.0358   -3.7457    0.4528 H   0  0  0  0  0  0  0  0  0  0  0  0
    4.3527   -2.1087    0.0134 H   0  0  0  0  0  0  0  0  0  0  0  0
   -0.2992   -1.6251   -1.7731 H   0  0  0  0  0  0  0  0  0  0  0  0
   -1.0954   -1.2694   -0.2255 H   0  0  0  0  0  0  0  0  0  0  0  0
    0.5081   -2.0167   -0.2480 H   0  0  0  0  0  0  0  0  0  0  0  0
   -4.9364    2.6317   -0.2176 H   0  0  0  0  0  0  0  0  0  0  0  0
   -4.1291    2.7214    2.7130 H   0  0  0  0  0  0  0  0  0  0  0  0
   -5.1155    1.4604    1.9619 H   0  0  0  0  0  0  0  0  0  0  0  0
   -5.7182    3.1142    2.0559 H   0  0  0  0  0  0  0  0  0  0  0  0
   -3.1053    4.5763    1.2436 H   0  0  0  0  0  0  0  0  0  0  0  0
   -3.5132    4.6310   -0.4801 H   0  0  0  0  0  0  0  0  0  0  0  0
   -4.7561    4.9046    0.7303 H   0  0  0  0  0  0  0  0  0  0  0  0
   -1.0231    2.9396    2.7895 H   0  0  0  0  0  0  0  0  0  0  0  0
  1  2  2  0  0  0  0
  2  3  1  0  0  0  0
  3  4  1  0  0  0  0
  4  5  4  0  0  0  0
  5  6  4  0  0  0  0
  6  7  1  0  0  0  0
  7  8  1  0  0  0  0
  6  9  4  0  0  0  0
  9 10  1  0  0  0  0
 10 11  1  0  0  0  0
  9 12  4  0  0  0  0
  4 13  4  0  0  0  0
 12 13  4  0  0  0  0
  3 14  1  0  0  0  0
 14 15  1  0  0  0  0
 15 16  1  0  0  0  0
 16 17  4  0  0  0  0
 17 18  1  0  0  0  0
 18 19  1  0  0  0  0
 19 20  1  0  0  0  0
 20 21  4  0  0  0  0
 21 22  4  0  0  0  0
 22 23  4  0  0  0  0
 23 24  1  0  0  0  0
 24 25  4  0  0  0  0
 23 26  4  0  0  0  0
 26 27  1  0  0  0  0
 27 28  1  0  0  0  0
 20 29  4  0  0  0  0
 26 29  4  0  0  0  0
 17 30  1  0  0  0  0
  3 31  1  0  0  0  0
 31 32  1  0  0  0  0
 31 33  1  0  0  0  0
  5 34  1  0  0  0  0
  8 35  1  0  0  0  0
  8 36  1  0  0  0  0
  8 37  1  0  0  0  0
 11 38  1  0  0  0  0
 11 39  1  0  0  0  0
 11 40  1  0  0  0  0
 12 41  1  0  0  0  0
 13 42  1  0  0  0  0
 14 43  1  0  0  0  0
 14 44  1  0  0  0  0
 15 45  1  0  0  0  0
 15 46  1  0  0  0  0
  2 47  1  0  0  0  0
 16 48  1  0  0  0  0
 18 49  1  0  0  0  0
 18 50  1  0  0  0  0
 19 51  1  0  0  0  0
 19 52  1  0  0  0  0
 21 53  1  0  0  0  0
 54 55  1  0  0  0  0
 25 56  1  0  0  0  0
 25 57  1  0  0  0  0
 28 58  1  0  0  0  0
 28 59  1  0  0  0  0
 28 60  1  0  0  0  0
 29 61  1  0  0  0  0
 30 62  1  0  0  0  0
 30 63  1  0  0  0  0
 30 64  1  0  0  0  0
 31 65  1  0  0  0  0
 32 66  1  0  0  0  0
 32 67  1  0  0  0  0
 32 68  1  0  0  0  0
 33 69  1  0  0  0  0
 33 70  1  0  0  0  0
 33 71  1  0  0  0  0
  1 72  1  0  0  0  0
M  CHG  1   1   1
M  END
