 xtb: 6.6.1 (8d0f1dd)
          04062411143D

 72 72  0     0  0            999 V2000
   -1.9703    2.8794    2.2300 N   0  0  0  0  0  0  0  0  0  0  0  0
   -1.9170    2.1672    1.2065 C   0  0  0  0  0  0  0  0  0  0  0  0
   -3.0640    1.9487    0.2585 C   0  0  0  0  0  0  0  0  0  0  0  0
   -3.5126    0.4965    0.3329 C   0  0  0  0  0  0  0  0  0  0  0  0
   -4.4518    0.0157   -0.5816 C   0  0  0  0  0  0  0  0  0  0  0  0
   -4.9146   -1.2886   -0.5270 C   0  0  0  0  0  0  0  0  0  0  0  0
   -5.8303   -1.8253   -1.3578 O   0  0  0  0  0  0  0  0  0  0  0  0
   -6.4642   -1.0042   -2.3104 C   0  0  0  0  0  0  0  0  0  0  0  0
   -4.4122   -2.1684    0.4710 C   0  0  0  0  0  0  0  0  0  0  0  0
   -4.9137   -3.4178    0.4473 O   0  0  0  0  0  0  0  0  0  0  0  0
   -4.5223   -4.3347    1.4429 C   0  0  0  0  0  0  0  0  0  0  0  0
   -3.4761   -1.6857    1.3722 C   0  0  0  0  0  0  0  0  0  0  0  0
   -3.0370   -0.3697    1.3056 C   0  0  0  0  0  0  0  0  0  0  0  0
   -2.5181    2.2619   -1.1595 C   0  0  0  0  0  0  0  0  0  0  0  0
   -1.5704    1.1908   -1.7255 C   0  0  0  0  0  0  0  0  0  0  0  0
   -0.2226    1.2179   -1.1166 C   0  0  0  0  0  0  0  0  0  0  0  0
    0.4956    0.1538   -0.7948 N   0  0  0  0  0  0  0  0  0  0  0  0
    1.8780    0.2929   -0.3993 C   0  0  0  0  0  0  0  0  0  0  0  0
    2.8380   -0.0500   -1.5536 C   0  0  0  0  0  0  0  0  0  0  0  0
    4.2591    0.1407   -1.0963 C   0  0  0  0  0  0  0  0  0  0  0  0
    4.9160    1.3555   -1.3218 C   0  0  0  0  0  0  0  0  0  0  0  0
    6.2146    1.5535   -0.8800 C   0  0  0  0  0  0  0  0  0  0  0  0
    6.8930    0.5611   -0.1915 C   0  0  0  0  0  0  0  0  0  0  0  0
    8.1371    0.6448    0.2809 O   0  0  0  0  0  0  0  0  0  0  0  0
    8.8892    1.8222    0.0956 C   0  0  0  0  0  0  0  0  0  0  0  0
    6.2410   -0.7286    0.0809 C   0  0  0  0  0  0  0  0  0  0  0  0
    6.8153   -1.6310    0.7040 O   0  0  0  0  0  0  0  0  0  0  0  0
    6.9606   -5.2756    2.0142 C   0  0  0  0  0  0  0  0  0  0  0  0
    4.9043   -0.8631   -0.4167 C   0  0  0  0  0  0  0  0  0  0  0  0
   -0.0280   -1.1865   -0.9079 C   0  0  0  0  0  0  0  0  0  0  0  0
   -4.2932    2.8564    0.5617 C   0  0  0  0  0  0  0  0  0  0  0  0
   -4.9269    2.5105    1.9068 C   0  0  0  0  0  0  0  0  0  0  0  0
   -3.9683    4.3468    0.5130 C   0  0  0  0  0  0  0  0  0  0  0  0
   -4.8395    0.6774   -1.3380 H   0  0  0  0  0  0  0  0  0  0  0  0
   -6.9823   -0.1659   -1.8352 H   0  0  0  0  0  0  0  0  0  0  0  0
   -7.1925   -1.6424   -2.8069 H   0  0  0  0  0  0  0  0  0  0  0  0
   -5.7536   -0.6246   -3.0518 H   0  0  0  0  0  0  0  0  0  0  0  0
   -4.7824   -3.9753    2.4429 H   0  0  0  0  0  0  0  0  0  0  0  0
   -5.0755   -5.2477    1.2323 H   0  0  0  0  0  0  0  0  0  0  0  0
   -3.4487   -4.5432    1.3969 H   0  0  0  0  0  0  0  0  0  0  0  0
   -3.0902   -2.3245    2.1498 H   0  0  0  0  0  0  0  0  0  0  0  0
   -2.3349   -0.0234    2.0480 H   0  0  0  0  0  0  0  0  0  0  0  0
   -3.3611    2.3641   -1.8416 H   0  0  0  0  0  0  0  0  0  0  0  0
   -1.9983    3.2202   -1.1332 H   0  0  0  0  0  0  0  0  0  0  0  0
   -2.0326    0.2086   -1.6394 H   0  0  0  0  0  0  0  0  0  0  0  0
   -1.4482    1.4073   -2.7951 H   0  0  0  0  0  0  0  0  0  0  0  0
   -1.0000    1.6495    0.8641 H   0  0  0  0  0  0  0  0  0  0  0  0
    0.2734    2.1752   -1.0478 H   0  0  0  0  0  0  0  0  0  0  0  0
    2.0793   -0.3700    0.4463 H   0  0  0  0  0  0  0  0  0  0  0  0
    2.0610    1.3206   -0.0791 H   0  0  0  0  0  0  0  0  0  0  0  0
    2.6234    0.6018   -2.4022 H   0  0  0  0  0  0  0  0  0  0  0  0
    2.6844   -1.0847   -1.8622 H   0  0  0  0  0  0  0  0  0  0  0  0
    4.4140    2.1459   -1.8591 H   0  0  0  0  0  0  0  0  0  0  0  0
    6.6969    2.4975   -1.0829 H   0  0  0  0  0  0  0  0  0  0  0  0
    8.4046    2.6838    0.5654 H   0  0  0  0  0  0  0  0  0  0  0  0
    9.0496    2.0295   -0.9668 H   0  0  0  0  0  0  0  0  0  0  0  0
    9.8475    1.6367    0.5779 H   0  0  0  0  0  0  0  0  0  0  0  0
    7.8741   -4.7371    2.1748 H   0  0  0  0  0  0  0  0  0  0  0  0
    6.1875   -5.2498    2.7524 H   0  0  0  0  0  0  0  0  0  0  0  0
    6.8071   -5.8068    1.0994 H   0  0  0  0  0  0  0  0  0  0  0  0
    4.4260   -1.8139   -0.2347 H   0  0  0  0  0  0  0  0  0  0  0  0
   -0.2252   -1.4458   -1.9499 H   0  0  0  0  0  0  0  0  0  0  0  0
   -0.9574   -1.2823   -0.3414 H   0  0  0  0  0  0  0  0  0  0  0  0
    0.6969   -1.8895   -0.5065 H   0  0  0  0  0  0  0  0  0  0  0  0
   -5.0319    2.6476   -0.2205 H   0  0  0  0  0  0  0  0  0  0  0  0
   -4.2326    2.7263    2.7125 H   0  0  0  0  0  0  0  0  0  0  0  0
   -5.2058    1.4605    1.9524 H   0  0  0  0  0  0  0  0  0  0  0  0
   -5.8223    3.1090    2.0516 H   0  0  0  0  0  0  0  0  0  0  0  0
   -3.2233    4.5954    1.2623 H   0  0  0  0  0  0  0  0  0  0  0  0
   -3.6101    4.6538   -0.4659 H   0  0  0  0  0  0  0  0  0  0  0  0
   -4.8695    4.9141    0.7296 H   0  0  0  0  0  0  0  0  0  0  0  0
   -1.1295    2.9793    2.7893 H   0  0  0  0  0  0  0  0  0  0  0  0
  1  2  2  0  0  0  0
  2  3  1  0  0  0  0
  3  4  1  0  0  0  0
  4  5  4  0  0  0  0
  5  6  4  0  0  0  0
  6  7  1  0  0  0  0
  7  8  1  0  0  0  0
  6  9  4  0  0  0  0
  9 10  1  0  0  0  0
 10 11  1  0  0  0  0
  9 12  4  0  0  0  0
  4 13  4  0  0  0  0
 12 13  4  0  0  0  0
  3 14  1  0  0  0  0
 14 15  1  0  0  0  0
 15 16  1  0  0  0  0
 16 17  4  0  0  0  0
 17 18  1  0  0  0  0
 18 19  1  0  0  0  0
 19 20  1  0  0  0  0
 20 21  4  0  0  0  0
 21 22  4  0  0  0  0
 22 23  4  0  0  0  0
 23 24  1  0  0  0  0
 24 25  1  0  0  0  0
 23 26  1  0  0  0  0
 26 27  2  0  0  0  0
 20 29  4  0  0  0  0
 26 29  1  0  0  0  0
 17 30  1  0  0  0  0
  3 31  1  0  0  0  0
 31 32  1  0  0  0  0
 31 33  1  0  0  0  0
  5 34  1  0  0  0  0
  8 35  1  0  0  0  0
  8 36  1  0  0  0  0
  8 37  1  0  0  0  0
 11 38  1  0  0  0  0
 11 39  1  0  0  0  0
 11 40  1  0  0  0  0
 12 41  1  0  0  0  0
 13 42  1  0  0  0  0
 14 43  1  0  0  0  0
 14 44  1  0  0  0  0
 15 45  1  0  0  0  0
 15 46  1  0  0  0  0
  2 47  1  0  0  0  0
 16 48  1  0  0  0  0
 18 49  1  0  0  0  0
 18 50  1  0  0  0  0
 19 51  1  0  0  0  0
 19 52  1  0  0  0  0
 21 53  1  0  0  0  0
 22 54  1  0  0  0  0
 25 55  1  0  0  0  0
 25 56  1  0  0  0  0
 25 57  1  0  0  0  0
 28 58  1  0  0  0  0
 28 59  1  0  0  0  0
 28 60  1  0  0  0  0
 29 61  1  0  0  0  0
 30 62  1  0  0  0  0
 30 63  1  0  0  0  0
 30 64  1  0  0  0  0
 31 65  1  0  0  0  0
 32 66  1  0  0  0  0
 32 67  1  0  0  0  0
 32 68  1  0  0  0  0
 33 69  1  0  0  0  0
 33 70  1  0  0  0  0
 33 71  1  0  0  0  0
  1 72  1  0  0  0  0
M  CHG  1   1   1
M  END
