 xtb: 6.6.1 (8d0f1dd)
          06052419583D

 25 26  0     0  0            999 V2000
    3.0488    1.2065    0.2423 C   0  0  0  0  0  0  0  0  0  0  0  0
    2.1948    0.0543    0.1139 N   0  0  0  0  0  0  0  0  0  0  0  0
    2.5687   -1.2139    0.0831 C   0  0  0  0  0  0  0  0  0  0  0  0
    1.4872   -2.0116   -0.0268 N   0  0  0  0  0  0  0  0  0  0  0  0
    0.3766   -1.2128   -0.0665 C   0  0  0  0  0  0  0  0  0  0  0  0
    0.8250    0.0950    0.0226 C   0  0  0  0  0  0  0  0  0  0  0  0
   -0.1079    1.2074   -0.0208 C   0  0  0  0  0  0  0  0  0  0  0  0
    0.1780    2.3833    0.0038 O   0  0  0  0  0  0  0  0  0  0  0  0
   -1.4231    0.7359   -0.1121 N   0  0  0  0  0  0  0  0  0  0  0  0
   -2.4596    1.8066   -0.1527 C   0  0  0  0  0  0  0  0  0  0  0  0
   -1.8601   -0.5278   -0.1863 C   0  0  0  0  0  0  0  0  0  0  0  0
   -2.3939    2.6394    0.9346 O   0  0  0  0  0  0  0  0  0  0  0  0
   -0.9331   -1.5184   -0.1716 N   0  0  0  0  0  0  0  0  0  0  0  0
   -1.3658   -2.8994   -0.2659 C   0  0  0  0  0  0  0  0  0  0  0  0
    3.5541    1.1957    1.2083 H   0  0  0  0  0  0  0  0  0  0  0  0
    3.8002    1.2120   -0.5468 H   0  0  0  0  0  0  0  0  0  0  0  0
    2.4366    2.1049    0.1682 H   0  0  0  0  0  0  0  0  0  0  0  0
    3.5822   -1.5636    0.1340 H   0  0  0  0  0  0  0  0  0  0  0  0
   -2.3234    2.3370   -1.1062 H   0  0  0  0  0  0  0  0  0  0  0  0
   -3.4244    1.2969   -0.1367 H   0  0  0  0  0  0  0  0  0  0  0  0
   -1.6359    3.2395    0.8517 H   0  0  0  0  0  0  0  0  0  0  0  0
   -1.0620   -3.4577    0.6209 H   0  0  0  0  0  0  0  0  0  0  0  0
   -0.9559   -3.3701   -1.1595 H   0  0  0  0  0  0  0  0  0  0  0  0
   -2.4512   -2.8997   -0.3289 H   0  0  0  0  0  0  0  0  0  0  0  0
    1.5047   -3.0212   -0.0714 H   0  0  0  0  0  0  0  0  0  0  0  0
  1  2  1  0  0  0  0
  2  3  4  0  0  0  0
  3  4  4  0  0  0  0
  4  5  1  0  0  0  0
  2  6  1  0  0  0  0
  5  6  4  0  0  0  0
  6  7  1  0  0  0  0
  7  8  2  0  0  0  0
  7  9  1  0  0  0  0
  9 10  1  0  0  0  0
  9 11  4  0  0  0  0
 10 12  1  0  0  0  0
  5 13  4  0  0  0  0
 11 13  4  0  0  0  0
 13 14  1  0  0  0  0
  1 15  1  0  0  0  0
  1 16  1  0  0  0  0
  1 17  1  0  0  0  0
  3 18  1  0  0  0  0
 10 19  1  0  0  0  0
 10 20  1  0  0  0  0
 12 21  1  0  0  0  0
 14 22  1  0  0  0  0
 14 23  1  0  0  0  0
 14 24  1  0  0  0  0
  4 25  1  0  0  0  0
M  CHG  1   1   1
M  END
