 xtb: 6.6.1 (8d0f1dd)
          04062411133D

 72 73  0     0  0            999 V2000
   -1.8479    2.9787    2.1837 N   0  0  0  0  0  0  0  0  0  0  0  0
   -1.8755    2.0702    1.3226 C   0  0  0  0  0  0  0  0  0  0  0  0
   -2.9861    1.8990    0.3196 C   0  0  0  0  0  0  0  0  0  0  0  0
   -3.4997    0.4732    0.3683 C   0  0  0  0  0  0  0  0  0  0  0  0
   -4.2233   -0.0538   -0.7011 C   0  0  0  0  0  0  0  0  0  0  0  0
   -4.7508   -1.3243   -0.6160 C   0  0  0  0  0  0  0  0  0  0  0  0
   -5.4121   -1.9257   -1.7299 O   0  0  0  0  0  0  0  0  0  0  0  0
   -5.8256   -1.0063   -2.8246 C   0  0  0  0  0  0  0  0  0  0  0  0
   -4.6274   -2.1129    0.5340 C   0  0  0  0  0  0  0  0  0  0  0  0
   -5.2641   -3.3162    0.4906 O   0  0  0  0  0  0  0  0  0  0  0  0
   -5.2577   -4.1195    1.6539 C   0  0  0  0  0  0  0  0  0  0  0  0
   -3.9021   -1.5875    1.5947 C   0  0  0  0  0  0  0  0  0  0  0  0
   -3.3432   -0.3192    1.4999 C   0  0  0  0  0  0  0  0  0  0  0  0
   -2.3637    2.2226   -1.0633 C   0  0  0  0  0  0  0  0  0  0  0  0
   -1.4063    1.1530   -1.6155 C   0  0  0  0  0  0  0  0  0  0  0  0
   -0.0983    1.1173   -0.9263 C   0  0  0  0  0  0  0  0  0  0  0  0
    0.5505    0.0104   -0.5563 N   0  0  0  0  0  0  0  0  0  0  0  0
    1.9411    0.0779   -0.1765 C   0  0  0  0  0  0  0  0  0  0  0  0
    2.8705   -0.2538   -1.3609 C   0  0  0  0  0  0  0  0  0  0  0  0
    4.3055   -0.0698   -0.9560 C   0  0  0  0  0  0  0  0  0  0  0  0
    4.9283    1.1572   -1.1043 C   0  0  0  0  0  0  0  0  0  0  0  0
    6.2436    1.3381   -0.7038 C   0  0  0  0  0  0  0  0  0  0  0  0
    6.9598    0.2933   -0.1401 C   0  0  0  0  0  0  0  0  0  0  0  0
    8.2384    0.3561    0.2844 O   0  0  0  0  0  0  0  0  0  0  0  0
    8.9426    1.5689    0.1533 C   0  0  0  0  0  0  0  0  0  0  0  0
    6.3283   -0.9693    0.0183 C   0  0  0  0  0  0  0  0  0  0  0  0
    7.0983   -1.9321    0.5708 O   0  0  0  0  0  0  0  0  0  0  0  0
    6.5642   -3.2223    0.7409 C   0  0  0  0  0  0  0  0  0  0  0  0
    5.0138   -1.1268   -0.3882 C   0  0  0  0  0  0  0  0  0  0  0  0
   -0.0360   -1.2992   -0.7016 C   0  0  0  0  0  0  0  0  0  0  0  0
   -4.2120    2.8329    0.5627 C   0  0  0  0  0  0  0  0  0  0  0  0
   -4.8377    2.5988    1.9359 C   0  0  0  0  0  0  0  0  0  0  0  0
   -3.8826    4.3151    0.4024 C   0  0  0  0  0  0  0  0  0  0  0  0
   -4.4250    0.5099   -1.5973 H   0  0  0  0  0  0  0  0  0  0  0  0
   -6.1860   -2.4149   -1.3991 H   0  0  0  0  0  0  0  0  0  0  0  0
   -6.7288   -1.3943   -3.2709 H   0  0  0  0  0  0  0  0  0  0  0  0
   -4.9984   -0.9419   -3.5235 H   0  0  0  0  0  0  0  0  0  0  0  0
   -5.7133   -3.5952    2.4976 H   0  0  0  0  0  0  0  0  0  0  0  0
   -5.8514   -4.9968    1.4062 H   0  0  0  0  0  0  0  0  0  0  0  0
   -4.2431   -4.4297    1.9151 H   0  0  0  0  0  0  0  0  0  0  0  0
   -3.7795   -2.1500    2.5051 H   0  0  0  0  0  0  0  0  0  0  0  0
   -2.8028    0.0659    2.3506 H   0  0  0  0  0  0  0  0  0  0  0  0
   -3.1708    2.3630   -1.7820 H   0  0  0  0  0  0  0  0  0  0  0  0
   -1.8258    3.1673   -0.9833 H   0  0  0  0  0  0  0  0  0  0  0  0
   -1.8901    0.1782   -1.6049 H   0  0  0  0  0  0  0  0  0  0  0  0
   -1.2200    1.4166   -2.6656 H   0  0  0  0  0  0  0  0  0  0  0  0
   -1.0626    1.3394    1.1737 H   0  0  0  0  0  0  0  0  0  0  0  0
    0.4306    2.0488   -0.8008 H   0  0  0  0  0  0  0  0  0  0  0  0
    2.1264   -0.6233    0.6413 H   0  0  0  0  0  0  0  0  0  0  0  0
    2.1677    1.0851    0.1787 H   0  0  0  0  0  0  0  0  0  0  0  0
    2.6286    0.4142   -2.1895 H   0  0  0  0  0  0  0  0  0  0  0  0
    2.6980   -1.2816   -1.6831 H   0  0  0  0  0  0  0  0  0  0  0  0
    4.3948    1.9846   -1.5472 H   0  0  0  0  0  0  0  0  0  0  0  0
    6.7043    2.3026   -0.8407 H   0  0  0  0  0  0  0  0  0  0  0  0
    8.4667    2.3730    0.7231 H   0  0  0  0  0  0  0  0  0  0  0  0
    9.0336    1.8684   -0.8953 H   0  0  0  0  0  0  0  0  0  0  0  0
    9.9332    1.3762    0.5605 H   0  0  0  0  0  0  0  0  0  0  0  0
    7.3645   -3.8148    1.1800 H   0  0  0  0  0  0  0  0  0  0  0  0
    5.7058   -3.2156    1.4209 H   0  0  0  0  0  0  0  0  0  0  0  0
    6.2701   -3.6652   -0.2160 H   0  0  0  0  0  0  0  0  0  0  0  0
    4.5266   -2.0833   -0.2795 H   0  0  0  0  0  0  0  0  0  0  0  0
   -0.1655   -1.5669   -1.7533 H   0  0  0  0  0  0  0  0  0  0  0  0
   -1.0100   -1.3353   -0.2080 H   0  0  0  0  0  0  0  0  0  0  0  0
    0.6141   -2.0352   -0.2351 H   0  0  0  0  0  0  0  0  0  0  0  0
   -4.9544    2.5615   -0.1978 H   0  0  0  0  0  0  0  0  0  0  0  0
   -4.1436    2.8944    2.7161 H   0  0  0  0  0  0  0  0  0  0  0  0
   -5.1092    1.5553    2.0773 H   0  0  0  0  0  0  0  0  0  0  0  0
   -5.7386    3.1989    2.0305 H   0  0  0  0  0  0  0  0  0  0  0  0
   -3.0812    4.5949    1.0782 H   0  0  0  0  0  0  0  0  0  0  0  0
   -3.6000    4.5609   -0.6172 H   0  0  0  0  0  0  0  0  0  0  0  0
   -4.7623    4.9022    0.6523 H   0  0  0  0  0  0  0  0  0  0  0  0
   -1.0285    3.0234    2.7824 H   0  0  0  0  0  0  0  0  0  0  0  0
  1  2  2  0  0  0  0
  2  3  1  0  0  0  0
  3  4  1  0  0  0  0
  4  5  4  0  0  0  0
  5  6  4  0  0  0  0
  6  7  1  0  0  0  0
  7  8  1  0  0  0  0
  6  9  4  0  0  0  0
  9 10  1  0  0  0  0
 10 11  1  0  0  0  0
  9 12  4  0  0  0  0
  4 13  4  0  0  0  0
 12 13  4  0  0  0  0
  3 14  1  0  0  0  0
 14 15  1  0  0  0  0
 15 16  1  0  0  0  0
 16 17  4  0  0  0  0
 17 18  1  0  0  0  0
 18 19  1  0  0  0  0
 19 20  1  0  0  0  0
 20 21  4  0  0  0  0
 21 22  4  0  0  0  0
 22 23  4  0  0  0  0
 23 24  1  0  0  0  0
 24 25  1  0  0  0  0
 23 26  4  0  0  0  0
 26 27  1  0  0  0  0
 27 28  1  0  0  0  0
 20 29  4  0  0  0  0
 26 29  4  0  0  0  0
 17 30  1  0  0  0  0
  3 31  1  0  0  0  0
 31 32  1  0  0  0  0
 31 33  1  0  0  0  0
  5 34  1  0  0  0  0
  7 35  1  0  0  0  0
  8 36  1  0  0  0  0
  8 37  1  0  0  0  0
 11 38  1  0  0  0  0
 11 39  1  0  0  0  0
 11 40  1  0  0  0  0
 12 41  1  0  0  0  0
 13 42  1  0  0  0  0
 14 43  1  0  0  0  0
 14 44  1  0  0  0  0
 15 45  1  0  0  0  0
 15 46  1  0  0  0  0
  2 47  1  0  0  0  0
 16 48  1  0  0  0  0
 18 49  1  0  0  0  0
 18 50  1  0  0  0  0
 19 51  1  0  0  0  0
 19 52  1  0  0  0  0
 21 53  1  0  0  0  0
 22 54  1  0  0  0  0
 25 55  1  0  0  0  0
 25 56  1  0  0  0  0
 25 57  1  0  0  0  0
 28 58  1  0  0  0  0
 28 59  1  0  0  0  0
 28 60  1  0  0  0  0
 29 61  1  0  0  0  0
 30 62  1  0  0  0  0
 30 63  1  0  0  0  0
 30 64  1  0  0  0  0
 31 65  1  0  0  0  0
 32 66  1  0  0  0  0
 32 67  1  0  0  0  0
 32 68  1  0  0  0  0
 33 69  1  0  0  0  0
 33 70  1  0  0  0  0
 33 71  1  0  0  0  0
  1 72  1  0  0  0  0
M  CHG  1   1   1
M  END
