 xtb: 6.6.1 (8d0f1dd)
          06052419573D

 25 25  0     0  0            999 V2000
    2.3181   -0.1313    1.3067 C   0  0  0  0  0  0  0  0  0  0  0  0
    1.8024   -0.3798   -0.0295 N   0  0  0  0  0  0  0  0  0  0  0  0
    2.5526   -1.0767   -0.9534 C   0  0  0  0  0  0  0  0  0  0  0  0
    2.3688   -1.2248   -2.1796 N   0  0  0  0  0  0  0  0  0  0  0  0
   -0.6069    0.1531   -0.0331 C   0  0  0  0  0  0  0  0  0  0  0  0
    0.7015    0.4348   -0.4418 C   0  0  0  0  0  0  0  0  0  0  0  0
    1.0440    1.4864   -1.2071 C   0  0  0  0  0  0  0  0  0  0  0  0
    1.4663    2.3156   -1.8682 O   0  0  0  0  0  0  0  0  0  0  0  0
   -1.7964    0.8000   -0.2091 N   0  0  0  0  0  0  0  0  0  0  0  0
   -2.2144    2.1005   -0.6484 C   0  0  0  0  0  0  0  0  0  0  0  0
   -2.4286   -0.2409    0.5433 C   0  0  0  0  0  0  0  0  0  0  0  0
   -3.5221   -0.4866    0.8825 O   0  0  0  0  0  0  0  0  0  0  0  0
   -1.1456   -0.8616    0.7025 N   0  0  0  0  0  0  0  0  0  0  0  0
   -0.7449   -2.1872    1.0813 C   0  0  0  0  0  0  0  0  0  0  0  0
    2.9077   -0.9895    1.6236 H   0  0  0  0  0  0  0  0  0  0  0  0
    2.9529    0.7584    1.3365 H   0  0  0  0  0  0  0  0  0  0  0  0
    1.4915    0.0042    2.0037 H   0  0  0  0  0  0  0  0  0  0  0  0
    3.3992   -1.5886   -0.5103 H   0  0  0  0  0  0  0  0  0  0  0  0
   -1.8860    2.2797   -1.6733 H   0  0  0  0  0  0  0  0  0  0  0  0
   -3.3028    2.1207   -0.6164 H   0  0  0  0  0  0  0  0  0  0  0  0
   -1.8244    2.8865    0.0029 H   0  0  0  0  0  0  0  0  0  0  0  0
    0.1616   -2.1535    1.6844 H   0  0  0  0  0  0  0  0  0  0  0  0
   -0.5724   -2.8159    0.2048 H   0  0  0  0  0  0  0  0  0  0  0  0
   -1.5529   -2.6147    1.6729 H   0  0  0  0  0  0  0  0  0  0  0  0
    1.5913   -0.7702   -2.6435 H   0  0  0  0  0  0  0  0  0  0  0  0
  1  2  1  0  0  0  0
  2  3  1  0  0  0  0
  3  4  2  0  0  0  0
  2  6  1  0  0  0  0
  5  6  4  0  0  0  0
  6  7  4  0  0  0  0
  7  8  2  0  0  0  0
  5  9  1  0  0  0  0
  9 10  1  0  0  0  0
  9 11  1  0  0  0  0
 11 12  2  0  0  0  0
  5 13  1  0  0  0  0
 11 13  1  0  0  0  0
 13 14  1  0  0  0  0
  1 15  1  0  0  0  0
  1 16  1  0  0  0  0
  1 17  1  0  0  0  0
  3 18  1  0  0  0  0
 10 19  1  0  0  0  0
 10 20  1  0  0  0  0
 10 21  1  0  0  0  0
 14 22  1  0  0  0  0
 14 23  1  0  0  0  0
 14 24  1  0  0  0  0
  4 25  1  0  0  0  0
M  CHG  1   1   1
M  END
