          71
 
N             -1.73620148        2.75985290        2.47580503
C             -1.70662851        2.19444545        1.36447775
C             -2.88109759        2.07614025        0.43096623
C             -3.38431357        0.64176366        0.41100862
C             -4.31947779        0.25088640       -0.54957397
C             -4.82989582       -1.03655826       -0.58158753
O             -5.73553480       -1.49300601       -1.46851898
C             -6.30819126       -0.59906552       -2.39454330
C             -4.39068972       -1.98787132        0.38073148
O             -4.93650319       -3.21378963        0.27337016
C             -4.62596879       -4.19190878        1.23874490
C             -3.46346462       -1.59204226        1.33227519
C             -2.96800092       -0.29391723        1.34630584
C             -2.34951706        2.48252418       -0.96821026
C             -1.48519772        1.41064859       -1.65973584
C             -0.15781474        1.22271375       -1.03694049
N              0.38396508        0.07142560       -0.71693891
C              1.75025871        0.01537623       -0.24651329
C              2.66930672       -0.72403393       -1.22734483
C              4.10092170       -0.50167716       -0.83371634
C              4.67172141        0.74007167       -0.81093506
C              5.95413252        1.03984241       -0.47770271
C              6.79315869       -0.01724518       -0.10753151
O              8.08037576        0.09548566        0.24649064
C              8.69520183        1.36404105        0.24962631
C              6.25870494       -1.33806451       -0.09479752
O              7.13169649       -2.29407758        0.28210607
C              6.70600964       -3.63611262        0.33345158
C              4.93575566       -1.55835029       -0.45158402
C             -0.32352392       -1.18584873       -0.80805773
C             -4.07524984        2.99422881        0.83531399
C             -4.69874635        2.55197828        2.15710293
C             -3.69593940        4.46972321        0.91198404
H             -4.66526515        0.97012563       -1.27313539
H             -6.81553242        0.22880252       -1.89043205
H             -7.03836840       -1.18348420       -2.95069764
H             -5.55974082       -0.20344783       -3.08881461
H             -4.89697545       -3.86098655        2.24543005
H             -5.22072101       -5.06343603        0.97272414
H             -3.56423108       -4.45713598        1.21411841
H             -3.12461369       -2.28674026        2.08338396
H             -2.26784444       -0.01479137        2.11814275
H             -3.19528681        2.70308472       -1.61856127
H             -1.76379060        3.39691926       -0.86792350
H             -2.03961095        0.47583008       -1.73014188
H             -1.30204847        1.77225689       -2.67910997
H             -0.79192382        1.75246283        0.92607859
H              0.48780425        2.09451993       -0.94156001
H              1.77643541       -0.47264862        0.73195117
H              2.12240913        1.05133611       -0.13703121
H              2.50958083       -0.31966240       -2.22965383
H              2.44838350       -1.79192256       -1.24387541
H              6.31593297        2.05494660       -0.49771293
H              8.21070469        2.04068806        0.95981623
H              8.69035392        1.81271286       -0.74813153
H              9.72316948        1.18845570        0.56155878
H              7.57280093       -4.20422020        0.66551415
H              5.88983751       -3.76960779        1.05056536
H              6.39342472       -3.99551872       -0.65166897
H              4.53120461       -2.55854632       -0.45060306
H             -0.43197884       -1.49948570       -1.84810476
H             -1.31406626       -1.10387807       -0.35669762
H              0.23671804       -1.94774397       -0.27205041
H             -4.83270872        2.87874609        0.05133176
H             -3.97497683        2.64893159        2.96011498
H             -5.03708972        1.51976808        2.10888443
H             -5.55466533        3.18172391        2.38460546
H             -2.93350618        4.62533526        1.66924936
H             -3.33590069        4.84727165       -0.04117658
H             -4.57234491        5.04905425        1.19066281
H             -0.87484568        2.81533931        3.00916444
