 xtb: 6.6.1 (8d0f1dd)
          06052419573D

 25 25  0     0  0            999 V2000
    3.1418    1.1484   -0.0454 C   0  0  0  0  0  0  0  0  0  0  0  0
    2.2313    0.0351   -0.0300 N   0  0  0  0  0  0  0  0  0  0  0  0
    2.5500   -1.2559   -0.0029 C   0  0  0  0  0  0  0  0  0  0  0  0
    1.4236   -2.0064    0.0216 N   0  0  0  0  0  0  0  0  0  0  0  0
    0.3536   -1.1624    0.0102 C   0  0  0  0  0  0  0  0  0  0  0  0
    0.8557    0.1328   -0.0201 C   0  0  0  0  0  0  0  0  0  0  0  0
    0.0086    1.2860   -0.0436 C   0  0  0  0  0  0  0  0  0  0  0  0
    0.3383    2.4503   -0.0865 O   0  0  0  0  0  0  0  0  0  0  0  0
   -1.3817    0.9120   -0.0123 N   0  0  0  0  0  0  0  0  0  0  0  0
   -2.2806    1.9055   -0.0103 C   0  0  0  0  0  0  0  0  0  0  0  0
   -1.8943   -0.4163    0.0147 C   0  0  0  0  0  0  0  0  0  0  0  0
   -3.0757   -0.6281    0.0340 O   0  0  0  0  0  0  0  0  0  0  0  0
   -0.9630   -1.4521    0.0214 N   0  0  0  0  0  0  0  0  0  0  0  0
   -1.4391   -2.8236    0.0403 C   0  0  0  0  0  0  0  0  0  0  0  0
    3.6238    1.2577    0.9275 H   0  0  0  0  0  0  0  0  0  0  0  0
    3.9098    0.9981   -0.8030 H   0  0  0  0  0  0  0  0  0  0  0  0
    2.5813    2.0569   -0.2620 H   0  0  0  0  0  0  0  0  0  0  0  0
    3.5461   -1.6511   -0.0015 H   0  0  0  0  0  0  0  0  0  0  0  0
   -1.7968    4.9479    0.1172 H   0  0  0  0  0  0  0  0  0  0  0  0
   -1.9220    2.9278   -0.0097 H   0  0  0  0  0  0  0  0  0  0  0  0
   -3.3241    1.6558   -0.0048 H   0  0  0  0  0  0  0  0  0  0  0  0
   -1.1211   -3.3241    0.9552 H   0  0  0  0  0  0  0  0  0  0  0  0
   -1.0734   -3.3637   -0.8330 H   0  0  0  0  0  0  0  0  0  0  0  0
   -2.5273   -2.7968    0.0119 H   0  0  0  0  0  0  0  0  0  0  0  0
    1.3956   -3.0156    0.0423 H   0  0  0  0  0  0  0  0  0  0  0  0
  1  2  1  0  0  0  0
  2  3  4  0  0  0  0
  3  4  4  0  0  0  0
  4  5  1  0  0  0  0
  2  6  1  0  0  0  0
  5  6  4  0  0  0  0
  6  7  1  0  0  0  0
  7  8  2  0  0  0  0
  7  9  1  0  0  0  0
  9 10  4  0  0  0  0
  9 11  1  0  0  0  0
 11 12  2  0  0  0  0
  5 13  1  0  0  0  0
 11 13  1  0  0  0  0
 13 14  1  0  0  0  0
  1 15  1  0  0  0  0
  1 16  1  0  0  0  0
  1 17  1  0  0  0  0
  3 18  1  0  0  0  0
 10 20  1  0  0  0  0
 10 21  1  0  0  0  0
 14 22  1  0  0  0  0
 14 23  1  0  0  0  0
 14 24  1  0  0  0  0
  4 25  1  0  0  0  0
M  CHG  1   1   1
M  END
