 xtb: 6.6.1 (8d0f1dd)
          04062411173D

 72 73  0     0  0            999 V2000
   -0.4444    1.9386    1.5799 N   0  0  0  0  0  0  0  0  0  0  0  0
   -1.6853    2.1308    1.5851 C   0  0  0  0  0  0  0  0  0  0  0  0
   -2.5658    1.8769    0.3903 C   0  0  0  0  0  0  0  0  0  0  0  0
   -3.2138    0.5060    0.5114 C   0  0  0  0  0  0  0  0  0  0  0  0
   -4.0634    0.0632   -0.5058 C   0  0  0  0  0  0  0  0  0  0  0  0
   -4.6860   -1.1710   -0.4424 C   0  0  0  0  0  0  0  0  0  0  0  0
   -5.5133   -1.6767   -1.3811 O   0  0  0  0  0  0  0  0  0  0  0  0
   -5.8604   -0.8856   -2.4931 C   0  0  0  0  0  0  0  0  0  0  0  0
   -4.4615   -2.0106    0.6821 C   0  0  0  0  0  0  0  0  0  0  0  0
   -5.1071   -3.1942    0.6567 O   0  0  0  0  0  0  0  0  0  0  0  0
   -4.9967   -4.0593    1.7626 C   0  0  0  0  0  0  0  0  0  0  0  0
   -3.6188   -1.5659    1.6873 C   0  0  0  0  0  0  0  0  0  0  0  0
   -3.0017   -0.3243    1.6003 C   0  0  0  0  0  0  0  0  0  0  0  0
   -1.7769    1.9958   -0.9464 C   0  0  0  0  0  0  0  0  0  0  0  0
   -1.0782    0.7309   -1.4667 C   0  0  0  0  0  0  0  0  0  0  0  0
    0.3276    0.5456   -0.8699 C   0  0  0  0  0  0  0  0  0  0  0  0
    0.7376   -0.8335   -0.8098 N   0  0  0  0  0  0  0  0  0  0  0  0
    1.7852   -1.3497   -1.4139 C   0  0  0  0  0  0  0  0  0  0  0  0
    2.7760   -0.6368   -2.2564 C   0  0  0  0  0  0  0  0  0  0  0  0
    3.9621   -0.1900   -1.4127 C   0  0  0  0  0  0  0  0  0  0  0  0
    4.2996    1.1473   -1.3144 C   0  0  0  0  0  0  0  0  0  0  0  0
    5.4219    1.5424   -0.5978 C   0  0  0  0  0  0  0  0  0  0  0  0
    6.2113    0.6076    0.0535 C   0  0  0  0  0  0  0  0  0  0  0  0
    7.3284    0.8717    0.7575 O   0  0  0  0  0  0  0  0  0  0  0  0
    7.8354    2.1875    0.7777 C   0  0  0  0  0  0  0  0  0  0  0  0
    5.8463   -0.7662   -0.0103 C   0  0  0  0  0  0  0  0  0  0  0  0
    6.6538   -1.6026    0.6719 O   0  0  0  0  0  0  0  0  0  0  0  0
    6.3818   -2.9835    0.6707 C   0  0  0  0  0  0  0  0  0  0  0  0
    4.7362   -1.1410   -0.7492 C   0  0  0  0  0  0  0  0  0  0  0  0
   -0.0849   -1.6928    0.0131 C   0  0  0  0  0  0  0  0  0  0  0  0
   -3.7134    2.9413    0.3953 C   0  0  0  0  0  0  0  0  0  0  0  0
   -4.6491    2.8086    1.6003 C   0  0  0  0  0  0  0  0  0  0  0  0
   -3.1748    4.3678    0.3115 C   0  0  0  0  0  0  0  0  0  0  0  0
   -4.2369    0.6962   -1.3597 H   0  0  0  0  0  0  0  0  0  0  0  0
   -6.3416    0.0483   -2.1872 H   0  0  0  0  0  0  0  0  0  0  0  0
   -6.5670   -1.4830   -3.0659 H   0  0  0  0  0  0  0  0  0  0  0  0
   -4.9886   -0.6617   -3.1166 H   0  0  0  0  0  0  0  0  0  0  0  0
   -5.3710   -3.5896    2.6769 H   0  0  0  0  0  0  0  0  0  0  0  0
   -5.6146   -4.9219    1.5206 H   0  0  0  0  0  0  0  0  0  0  0  0
   -3.9629   -4.3860    1.9161 H   0  0  0  0  0  0  0  0  0  0  0  0
   -3.4383   -2.1774    2.5562 H   0  0  0  0  0  0  0  0  0  0  0  0
   -2.3594   -0.0112    2.4091 H   0  0  0  0  0  0  0  0  0  0  0  0
   -2.4822    2.3176   -1.7139 H   0  0  0  0  0  0  0  0  0  0  0  0
   -1.0332    2.7840   -0.8325 H   0  0  0  0  0  0  0  0  0  0  0  0
   -1.6933   -0.1378   -1.2433 H   0  0  0  0  0  0  0  0  0  0  0  0
   -0.9986    0.8023   -2.5527 H   0  0  0  0  0  0  0  0  0  0  0  0
   -2.2190    2.4900    2.4673 H   0  0  0  0  0  0  0  0  0  0  0  0
    1.0549    1.1175   -1.4390 H   0  0  0  0  0  0  0  0  0  0  0  0
    1.9736   -2.3943   -1.2144 H   0  0  0  0  0  0  0  0  0  0  0  0
    0.2902    0.9551    0.1540 H   0  0  0  0  0  0  0  0  0  0  0  0
    2.3484    0.2284   -2.7613 H   0  0  0  0  0  0  0  0  0  0  0  0
    3.1425   -1.3268   -3.0195 H   0  0  0  0  0  0  0  0  0  0  0  0
    3.7108    1.8993   -1.8171 H   0  0  0  0  0  0  0  0  0  0  0  0
    5.6752    2.5893   -0.5606 H   0  0  0  0  0  0  0  0  0  0  0  0
    7.1507    2.8754    1.2837 H   0  0  0  0  0  0  0  0  0  0  0  0
    8.0397    2.5508   -0.2344 H   0  0  0  0  0  0  0  0  0  0  0  0
    8.7682    2.1323    1.3364 H   0  0  0  0  0  0  0  0  0  0  0  0
    7.1562   -3.4330    1.2896 H   0  0  0  0  0  0  0  0  0  0  0  0
    5.4007   -3.2001    1.1063 H   0  0  0  0  0  0  0  0  0  0  0  0
    6.4367   -3.4045   -0.3381 H   0  0  0  0  0  0  0  0  0  0  0  0
    4.4777   -2.1842   -0.8356 H   0  0  0  0  0  0  0  0  0  0  0  0
   -0.8437   -2.1977   -0.5887 H   0  0  0  0  0  0  0  0  0  0  0  0
   -0.5885   -1.0986    0.7722 H   0  0  0  0  0  0  0  0  0  0  0  0
    0.5202   -2.4549    0.5001 H   0  0  0  0  0  0  0  0  0  0  0  0
   -4.3187    2.7534   -0.4978 H   0  0  0  0  0  0  0  0  0  0  0  0
   -4.1798    3.1506    2.5201 H   0  0  0  0  0  0  0  0  0  0  0  0
   -4.9764    1.7808    1.7367 H   0  0  0  0  0  0  0  0  0  0  0  0
   -5.5303    3.4259    1.4387 H   0  0  0  0  0  0  0  0  0  0  0  0
   -2.4602    4.5659    1.1082 H   0  0  0  0  0  0  0  0  0  0  0  0
   -2.6879    4.5569   -0.6421 H   0  0  0  0  0  0  0  0  0  0  0  0
   -3.9982    5.0712    0.4127 H   0  0  0  0  0  0  0  0  0  0  0  0
    0.0439    2.1570    2.4491 H   0  0  0  0  0  0  0  0  0  0  0  0
  1  2  2  0  0  0  0
  2  3  1  0  0  0  0
  3  4  1  0  0  0  0
  4  5  4  0  0  0  0
  5  6  4  0  0  0  0
  6  7  1  0  0  0  0
  7  8  1  0  0  0  0
  6  9  4  0  0  0  0
  9 10  1  0  0  0  0
 10 11  1  0  0  0  0
  9 12  4  0  0  0  0
  4 13  4  0  0  0  0
 12 13  4  0  0  0  0
  3 14  1  0  0  0  0
 14 15  1  0  0  0  0
 15 16  1  0  0  0  0
 16 17  1  0  0  0  0
 17 18  4  0  0  0  0
 18 19  1  0  0  0  0
 19 20  1  0  0  0  0
 20 21  4  0  0  0  0
 21 22  4  0  0  0  0
 22 23  4  0  0  0  0
 23 24  1  0  0  0  0
 24 25  1  0  0  0  0
 23 26  4  0  0  0  0
 26 27  1  0  0  0  0
 27 28  1  0  0  0  0
 20 29  4  0  0  0  0
 26 29  4  0  0  0  0
 17 30  1  0  0  0  0
  3 31  1  0  0  0  0
 31 32  1  0  0  0  0
 31 33  1  0  0  0  0
  5 34  1  0  0  0  0
  8 35  1  0  0  0  0
  8 36  1  0  0  0  0
  8 37  1  0  0  0  0
 11 38  1  0  0  0  0
 11 39  1  0  0  0  0
 11 40  1  0  0  0  0
 12 41  1  0  0  0  0
 13 42  1  0  0  0  0
 14 43  1  0  0  0  0
 14 44  1  0  0  0  0
 15 45  1  0  0  0  0
 15 46  1  0  0  0  0
  2 47  1  0  0  0  0
 16 48  1  0  0  0  0
 18 49  1  0  0  0  0
 16 50  1  0  0  0  0
 19 51  1  0  0  0  0
 19 52  1  0  0  0  0
 21 53  1  0  0  0  0
 22 54  1  0  0  0  0
 25 55  1  0  0  0  0
 25 56  1  0  0  0  0
 25 57  1  0  0  0  0
 28 58  1  0  0  0  0
 28 59  1  0  0  0  0
 28 60  1  0  0  0  0
 29 61  1  0  0  0  0
 30 62  1  0  0  0  0
 30 63  1  0  0  0  0
 30 64  1  0  0  0  0
 31 65  1  0  0  0  0
 32 66  1  0  0  0  0
 32 67  1  0  0  0  0
 32 68  1  0  0  0  0
 33 69  1  0  0  0  0
 33 70  1  0  0  0  0
 33 71  1  0  0  0  0
  1 72  1  0  0  0  0
M  CHG  1   1   1
M  END
