 xtb: 6.6.1 (8d0f1dd)
          04062411163D

 72 73  0     0  0            999 V2000
   -2.0263    2.9231    2.2121 N   0  0  0  0  0  0  0  0  0  0  0  0
   -1.8685    2.1684    1.2287 C   0  0  0  0  0  0  0  0  0  0  0  0
   -2.9008    1.9553    0.1546 C   0  0  0  0  0  0  0  0  0  0  0  0
   -3.3510    0.5001    0.1449 C   0  0  0  0  0  0  0  0  0  0  0  0
   -4.0737    0.0085   -0.8982 C   0  0  0  0  0  0  0  0  0  0  0  0
   -4.7255   -1.3353   -0.8613 C   0  0  0  0  0  0  0  0  0  0  0  0
   -6.1170   -1.1314   -0.5391 O   0  0  0  0  0  0  0  0  0  0  0  0
   -7.0336   -1.3773   -1.5750 C   0  0  0  0  0  0  0  0  0  0  0  0
   -4.1745   -2.2206    0.2267 C   0  0  0  0  0  0  0  0  0  0  0  0
   -4.5609   -3.4907    0.0931 O   0  0  0  0  0  0  0  0  0  0  0  0
   -4.2925   -4.4198    1.1245 C   0  0  0  0  0  0  0  0  0  0  0  0
   -3.4423   -1.6832    1.2542 C   0  0  0  0  0  0  0  0  0  0  0  0
   -3.0625   -0.3413    1.2417 C   0  0  0  0  0  0  0  0  0  0  0  0
   -2.2057    2.3311   -1.1798 C   0  0  0  0  0  0  0  0  0  0  0  0
   -1.2184    1.2895   -1.7386 C   0  0  0  0  0  0  0  0  0  0  0  0
    0.0764    1.2135   -1.0142 C   0  0  0  0  0  0  0  0  0  0  0  0
    0.6194    0.1162   -0.4974 N   0  0  0  0  0  0  0  0  0  0  0  0
    2.0126    0.2157   -0.0694 C   0  0  0  0  0  0  0  0  0  0  0  0
    2.9510   -0.1450   -1.2319 C   0  0  0  0  0  0  0  0  0  0  0  0
    4.3893   -0.0174   -0.8126 C   0  0  0  0  0  0  0  0  0  0  0  0
    5.0691    1.1797   -0.9731 C   0  0  0  0  0  0  0  0  0  0  0  0
    6.3928    1.3032   -0.5814 C   0  0  0  0  0  0  0  0  0  0  0  0
    7.0652    0.2290   -0.0151 C   0  0  0  0  0  0  0  0  0  0  0  0
    8.3464    0.2311    0.3930 O   0  0  0  0  0  0  0  0  0  0  0  0
    9.1205    1.3974    0.2295 C   0  0  0  0  0  0  0  0  0  0  0  0
    6.3733   -1.0025    0.1610 C   0  0  0  0  0  0  0  0  0  0  0  0
    7.0992   -1.9921    0.7153 O   0  0  0  0  0  0  0  0  0  0  0  0
    6.5131   -3.2584    0.9016 C   0  0  0  0  0  0  0  0  0  0  0  0
    5.0491   -1.1007   -0.2381 C   0  0  0  0  0  0  0  0  0  0  0  0
    0.0470   -1.0731   -0.3755 C   0  0  0  0  0  0  0  0  0  0  0  0
   -4.1786    2.8287    0.3440 C   0  0  0  0  0  0  0  0  0  0  0  0
   -4.9353    2.4501    1.6147 C   0  0  0  0  0  0  0  0  0  0  0  0
   -3.8937    4.3275    0.3389 C   0  0  0  0  0  0  0  0  0  0  0  0
   -4.3394    0.6278   -1.7405 H   0  0  0  0  0  0  0  0  0  0  0  0
   -6.8762   -0.7024   -2.4242 H   0  0  0  0  0  0  0  0  0  0  0  0
   -8.0181   -1.1917   -1.1497 H   0  0  0  0  0  0  0  0  0  0  0  0
   -6.9782   -2.4153   -1.9217 H   0  0  0  0  0  0  0  0  0  0  0  0
   -4.7574   -4.1098    2.0636 H   0  0  0  0  0  0  0  0  0  0  0  0
   -4.7282   -5.3606    0.7946 H   0  0  0  0  0  0  0  0  0  0  0  0
   -3.2163   -4.5462    1.2714 H   0  0  0  0  0  0  0  0  0  0  0  0
   -3.1468   -2.2942    2.0926 H   0  0  0  0  0  0  0  0  0  0  0  0
   -2.5387    0.0557    2.0959 H   0  0  0  0  0  0  0  0  0  0  0  0
   -2.9759    2.4958   -1.9327 H   0  0  0  0  0  0  0  0  0  0  0  0
   -1.6761    3.2745   -1.0399 H   0  0  0  0  0  0  0  0  0  0  0  0
   -1.7035    0.3166   -1.7902 H   0  0  0  0  0  0  0  0  0  0  0  0
   -0.9964    1.6023   -2.7663 H   0  0  0  0  0  0  0  0  0  0  0  0
   -0.9352    1.6181    1.0260 H   0  0  0  0  0  0  0  0  0  0  0  0
    0.6876    2.1015   -1.0062 H   0  0  0  0  0  0  0  0  0  0  0  0
    2.1834   -0.4642    0.7669 H   0  0  0  0  0  0  0  0  0  0  0  0
    2.2220    1.2338    0.2643 H   0  0  0  0  0  0  0  0  0  0  0  0
    2.7496    0.5247   -2.0698 H   0  0  0  0  0  0  0  0  0  0  0  0
    2.7422   -1.1671   -1.5527 H   0  0  0  0  0  0  0  0  0  0  0  0
    4.5724    2.0271   -1.4206 H   0  0  0  0  0  0  0  0  0  0  0  0
    6.8975    2.2439   -0.7279 H   0  0  0  0  0  0  0  0  0  0  0  0
    8.7080    2.2353    0.7995 H   0  0  0  0  0  0  0  0  0  0  0  0
    9.2036    1.6775   -0.8248 H   0  0  0  0  0  0  0  0  0  0  0  0
   10.1071    1.1492    0.6160 H   0  0  0  0  0  0  0  0  0  0  0  0
    7.2923   -3.8794    1.3390 H   0  0  0  0  0  0  0  0  0  0  0  0
    5.6622   -3.2094    1.5885 H   0  0  0  0  0  0  0  0  0  0  0  0
    6.1927   -3.6959   -0.0490 H   0  0  0  0  0  0  0  0  0  0  0  0
    4.5190   -2.0327   -0.1194 H   0  0  0  0  0  0  0  0  0  0  0  0
   -0.9673   -1.2338   -0.6766 H   0  0  0  0  0  0  0  0  0  0  0  0
   -4.6735   -1.8465   -1.8322 H   0  0  0  0  0  0  0  0  0  0  0  0
    0.6065   -1.8803    0.0496 H   0  0  0  0  0  0  0  0  0  0  0  0
   -4.8286    2.6023   -0.5090 H   0  0  0  0  0  0  0  0  0  0  0  0
   -4.3228    2.6490    2.4888 H   0  0  0  0  0  0  0  0  0  0  0  0
   -5.2173    1.3999    1.6062 H   0  0  0  0  0  0  0  0  0  0  0  0
   -5.8425    3.0440    1.6874 H   0  0  0  0  0  0  0  0  0  0  0  0
   -3.2298    4.5877    1.1577 H   0  0  0  0  0  0  0  0  0  0  0  0
   -3.4522    4.6544   -0.5987 H   0  0  0  0  0  0  0  0  0  0  0  0
   -4.8275    4.8673    0.4733 H   0  0  0  0  0  0  0  0  0  0  0  0
   -1.2553    3.0263    2.8643 H   0  0  0  0  0  0  0  0  0  0  0  0
  1  2  2  0  0  0  0
  2  3  1  0  0  0  0
  3  4  1  0  0  0  0
  4  5  2  0  0  0  0
  5  6  1  0  0  0  0
  6  7  1  0  0  0  0
  7  8  1  0  0  0  0
  6  9  1  0  0  0  0
  9 10  1  0  0  0  0
 10 11  1  0  0  0  0
  9 12  4  0  0  0  0
  4 13  4  0  0  0  0
 12 13  4  0  0  0  0
  3 14  1  0  0  0  0
 14 15  1  0  0  0  0
 15 16  1  0  0  0  0
 16 17  4  0  0  0  0
 17 18  1  0  0  0  0
 18 19  1  0  0  0  0
 19 20  1  0  0  0  0
 20 21  4  0  0  0  0
 21 22  4  0  0  0  0
 22 23  4  0  0  0  0
 23 24  1  0  0  0  0
 24 25  1  0  0  0  0
 23 26  4  0  0  0  0
 26 27  1  0  0  0  0
 27 28  1  0  0  0  0
 20 29  4  0  0  0  0
 26 29  4  0  0  0  0
 17 30  4  0  0  0  0
  3 31  1  0  0  0  0
 31 32  1  0  0  0  0
 31 33  1  0  0  0  0
  5 34  1  0  0  0  0
  8 35  1  0  0  0  0
  8 36  1  0  0  0  0
  8 37  1  0  0  0  0
 11 38  1  0  0  0  0
 11 39  1  0  0  0  0
 11 40  1  0  0  0  0
 12 41  1  0  0  0  0
 13 42  1  0  0  0  0
 14 43  1  0  0  0  0
 14 44  1  0  0  0  0
 15 45  1  0  0  0  0
 15 46  1  0  0  0  0
  2 47  1  0  0  0  0
 16 48  1  0  0  0  0
 18 49  1  0  0  0  0
 18 50  1  0  0  0  0
 19 51  1  0  0  0  0
 19 52  1  0  0  0  0
 21 53  1  0  0  0  0
 22 54  1  0  0  0  0
 25 55  1  0  0  0  0
 25 56  1  0  0  0  0
 25 57  1  0  0  0  0
 28 58  1  0  0  0  0
 28 59  1  0  0  0  0
 28 60  1  0  0  0  0
 29 61  1  0  0  0  0
 30 62  1  0  0  0  0
  6 63  1  0  0  0  0
 30 64  1  0  0  0  0
 31 65  1  0  0  0  0
 32 66  1  0  0  0  0
 32 67  1  0  0  0  0
 32 68  1  0  0  0  0
 33 69  1  0  0  0  0
 33 70  1  0  0  0  0
 33 71  1  0  0  0  0
  1 72  1  0  0  0  0
M  CHG  1   1   1
M  END
