 xtb: 6.6.1 (8d0f1dd)
          04062411133D

 72 73  0     0  0            999 V2000
   -1.4466    2.6951    2.3514 N   0  0  0  0  0  0  0  0  0  0  0  0
   -1.4224    1.7956    1.4823 C   0  0  0  0  0  0  0  0  0  0  0  0
   -2.4751    1.6678    0.3774 C   0  0  0  0  0  0  0  0  0  0  0  0
   -3.1166    0.2894    0.4624 C   0  0  0  0  0  0  0  0  0  0  0  0
   -4.0087   -0.1138   -0.5335 C   0  0  0  0  0  0  0  0  0  0  0  0
   -4.6225   -1.3553   -0.4948 C   0  0  0  0  0  0  0  0  0  0  0  0
   -5.4782   -1.8277   -1.4237 O   0  0  0  0  0  0  0  0  0  0  0  0
   -5.8261   -1.0154   -2.5200 C   0  0  0  0  0  0  0  0  0  0  0  0
   -4.3569   -2.2340    0.5902 C   0  0  0  0  0  0  0  0  0  0  0  0
   -4.9897   -3.4212    0.5444 O   0  0  0  0  0  0  0  0  0  0  0  0
   -4.7921   -4.3443    1.5906 C   0  0  0  0  0  0  0  0  0  0  0  0
   -3.4999   -1.8092    1.5940 C   0  0  0  0  0  0  0  0  0  0  0  0
   -2.8900   -0.5641    1.5316 C   0  0  0  0  0  0  0  0  0  0  0  0
   -1.6676    1.8758   -0.9156 C   0  0  0  0  0  0  0  0  0  0  0  0
   -1.6273    0.9419   -2.0946 C   0  0  0  0  0  0  0  0  0  0  0  0
   -0.3870    1.1266   -1.2799 C   0  0  0  0  0  0  0  0  0  0  0  0
    0.1703    0.0917   -0.4665 N   0  0  0  0  0  0  0  0  0  0  0  0
    1.5732    0.2550   -0.1634 C   0  0  0  0  0  0  0  0  0  0  0  0
    2.5281   -0.1138   -1.3227 C   0  0  0  0  0  0  0  0  0  0  0  0
    3.9522    0.0677   -0.8957 C   0  0  0  0  0  0  0  0  0  0  0  0
    4.6081    1.2764   -1.0811 C   0  0  0  0  0  0  0  0  0  0  0  0
    5.9189    1.4450   -0.6656 C   0  0  0  0  0  0  0  0  0  0  0  0
    6.6046    0.4081   -0.0463 C   0  0  0  0  0  0  0  0  0  0  0  0
    7.8762    0.4581    0.3892 O   0  0  0  0  0  0  0  0  0  0  0  0
    8.6261    1.6351    0.1950 C   0  0  0  0  0  0  0  0  0  0  0  0
    5.9376   -0.8327    0.1593 C   0  0  0  0  0  0  0  0  0  0  0  0
    6.6687   -1.7864    0.7679 O   0  0  0  0  0  0  0  0  0  0  0  0
    6.0979   -3.0543    0.9886 C   0  0  0  0  0  0  0  0  0  0  0  0
    4.6266   -0.9764   -0.2675 C   0  0  0  0  0  0  0  0  0  0  0  0
   -0.2460   -1.2689   -0.7236 C   0  0  0  0  0  0  0  0  0  0  0  0
   -3.5241    2.7434    0.6006 C   0  0  0  0  0  0  0  0  0  0  0  0
   -4.5204    2.4608    1.6690 C   0  0  0  0  0  0  0  0  0  0  0  0
   -3.1420    4.1731    0.4661 C   0  0  0  0  0  0  0  0  0  0  0  0
   -4.2347    0.5631   -1.3395 H   0  0  0  0  0  0  0  0  0  0  0  0
   -6.3229   -0.0958   -2.1968 H   0  0  0  0  0  0  0  0  0  0  0  0
   -6.5181   -1.6097   -3.1132 H   0  0  0  0  0  0  0  0  0  0  0  0
   -4.9519   -0.7641   -3.1294 H   0  0  0  0  0  0  0  0  0  0  0  0
   -5.1394   -3.9447    2.5480 H   0  0  0  0  0  0  0  0  0  0  0  0
   -5.3874   -5.2162    1.3268 H   0  0  0  0  0  0  0  0  0  0  0  0
   -3.7404   -4.6348    1.6748 H   0  0  0  0  0  0  0  0  0  0  0  0
   -3.3013   -2.4426    2.4428 H   0  0  0  0  0  0  0  0  0  0  0  0
   -2.2462   -0.2680    2.3442 H   0  0  0  0  0  0  0  0  0  0  0  0
   -5.2280    2.8316   -1.4387 H   0  0  0  0  0  0  0  0  0  0  0  0
   -1.6125    2.9244   -1.1755 H   0  0  0  0  0  0  0  0  0  0  0  0
   -2.1340   -0.0046   -2.0273 H   0  0  0  0  0  0  0  0  0  0  0  0
   -1.6600    1.3813   -3.0809 H   0  0  0  0  0  0  0  0  0  0  0  0
   -0.6422    1.0362    1.3796 H   0  0  0  0  0  0  0  0  0  0  0  0
    0.3777    1.7658   -1.7119 H   0  0  0  0  0  0  0  0  0  0  0  0
    1.8086   -0.3771    0.6980 H   0  0  0  0  0  0  0  0  0  0  0  0
    1.7466    1.2952    0.1247 H   0  0  0  0  0  0  0  0  0  0  0  0
    2.3102    0.5217   -2.1828 H   0  0  0  0  0  0  0  0  0  0  0  0
    2.3546   -1.1522   -1.6075 H   0  0  0  0  0  0  0  0  0  0  0  0
    4.1007    2.0965   -1.5661 H   0  0  0  0  0  0  0  0  0  0  0  0
    6.4044    2.3926   -0.8325 H   0  0  0  0  0  0  0  0  0  0  0  0
    8.1858    2.4833    0.7280 H   0  0  0  0  0  0  0  0  0  0  0  0
    8.7190    1.8793   -0.8675 H   0  0  0  0  0  0  0  0  0  0  0  0
    9.6120    1.4242    0.6046 H   0  0  0  0  0  0  0  0  0  0  0  0
    6.8728   -3.6441    1.4741 H   0  0  0  0  0  0  0  0  0  0  0  0
    5.2253   -2.9920    1.6466 H   0  0  0  0  0  0  0  0  0  0  0  0
    5.8134   -3.5348    0.0474 H   0  0  0  0  0  0  0  0  0  0  0  0
    4.1145   -1.9153   -0.1268 H   0  0  0  0  0  0  0  0  0  0  0  0
   -0.0953   -1.5683   -1.7679 H   0  0  0  0  0  0  0  0  0  0  0  0
   -1.3001   -1.3881   -0.4748 H   0  0  0  0  0  0  0  0  0  0  0  0
    0.3269   -1.9357   -0.0823 H   0  0  0  0  0  0  0  0  0  0  0  0
   -4.6430    2.7323   -0.8116 H   0  0  0  0  0  0  0  0  0  0  0  0
   -4.0014    2.5213    2.6320 H   0  0  0  0  0  0  0  0  0  0  0  0
   -4.9551    1.4676    1.5898 H   0  0  0  0  0  0  0  0  0  0  0  0
   -5.3147    3.2027    1.6758 H   0  0  0  0  0  0  0  0  0  0  0  0
   -2.3752    4.3800    1.2220 H   0  0  0  0  0  0  0  0  0  0  0  0
   -2.7318    4.4342   -0.5064 H   0  0  0  0  0  0  0  0  0  0  0  0
   -3.9942    4.8176    0.6638 H   0  0  0  0  0  0  0  0  0  0  0  0
   -0.6852    2.7126    3.0223 H   0  0  0  0  0  0  0  0  0  0  0  0
  1  2  2  0  0  0  0
  2  3  1  0  0  0  0
  3  4  1  0  0  0  0
  4  5  4  0  0  0  0
  5  6  4  0  0  0  0
  6  7  1  0  0  0  0
  7  8  1  0  0  0  0
  6  9  4  0  0  0  0
  9 10  1  0  0  0  0
 10 11  1  0  0  0  0
  9 12  4  0  0  0  0
  4 13  4  0  0  0  0
 12 13  4  0  0  0  0
  3 14  1  0  0  0  0
 14 15  1  0  0  0  0
 14 16  1  0  0  0  0
 15 16  1  0  0  0  0
 16 17  1  0  0  0  0
 17 18  1  0  0  0  0
 18 19  1  0  0  0  0
 19 20  1  0  0  0  0
 20 21  4  0  0  0  0
 21 22  4  0  0  0  0
 22 23  4  0  0  0  0
 23 24  1  0  0  0  0
 24 25  1  0  0  0  0
 23 26  4  0  0  0  0
 26 27  1  0  0  0  0
 27 28  1  0  0  0  0
 20 29  4  0  0  0  0
 26 29  4  0  0  0  0
 17 30  1  0  0  0  0
  3 31  1  0  0  0  0
 31 32  1  0  0  0  0
 31 33  1  0  0  0  0
  5 34  1  0  0  0  0
  8 35  1  0  0  0  0
  8 36  1  0  0  0  0
  8 37  1  0  0  0  0
 11 38  1  0  0  0  0
 11 39  1  0  0  0  0
 11 40  1  0  0  0  0
 12 41  1  0  0  0  0
 13 42  1  0  0  0  0
 14 44  1  0  0  0  0
 15 45  1  0  0  0  0
 15 46  1  0  0  0  0
  2 47  1  0  0  0  0
 16 48  1  0  0  0  0
 18 49  1  0  0  0  0
 18 50  1  0  0  0  0
 19 51  1  0  0  0  0
 19 52  1  0  0  0  0
 21 53  1  0  0  0  0
 22 54  1  0  0  0  0
 25 55  1  0  0  0  0
 25 56  1  0  0  0  0
 25 57  1  0  0  0  0
 28 58  1  0  0  0  0
 28 59  1  0  0  0  0
 28 60  1  0  0  0  0
 29 61  1  0  0  0  0
 30 62  1  0  0  0  0
 30 63  1  0  0  0  0
 30 64  1  0  0  0  0
 43 65  1  0  0  0  0
 32 66  1  0  0  0  0
 32 67  1  0  0  0  0
 32 68  1  0  0  0  0
 33 69  1  0  0  0  0
 33 70  1  0  0  0  0
 33 71  1  0  0  0  0
  1 72  1  0  0  0  0
M  CHG  1   1   1
M  END
