 xtb: 6.6.1 (8d0f1dd)
          04062411153D

 72 74  0     0  0            999 V2000
   -0.6633    1.6871    0.5476 N   0  0  0  0  0  0  0  0  0  0  0  0
   -1.9016    1.7809    1.0017 C   0  0  0  0  0  0  0  0  0  0  0  0
   -3.0966    1.6841    0.1240 C   0  0  0  0  0  0  0  0  0  0  0  0
   -3.7180    0.2870    0.2468 C   0  0  0  0  0  0  0  0  0  0  0  0
   -4.7797   -0.0873   -0.5778 C   0  0  0  0  0  0  0  0  0  0  0  0
   -5.3717   -1.3362   -0.4700 C   0  0  0  0  0  0  0  0  0  0  0  0
   -6.3888   -1.7892   -1.2298 O   0  0  0  0  0  0  0  0  0  0  0  0
   -6.9158   -0.9751   -2.2503 C   0  0  0  0  0  0  0  0  0  0  0  0
   -4.9049   -2.2539    0.5099 C   0  0  0  0  0  0  0  0  0  0  0  0
   -5.5514   -3.4344    0.5649 O   0  0  0  0  0  0  0  0  0  0  0  0
   -5.1568   -4.3770    1.5356 C   0  0  0  0  0  0  0  0  0  0  0  0
   -3.8466   -1.8773    1.3194 C   0  0  0  0  0  0  0  0  0  0  0  0
   -3.2607   -0.6254    1.1843 C   0  0  0  0  0  0  0  0  0  0  0  0
   -2.6328    1.9220   -1.3260 C   0  0  0  0  0  0  0  0  0  0  0  0
   -1.4826    0.9796   -1.6583 C   0  0  0  0  0  0  0  0  0  0  0  0
   -0.2513    1.3396   -0.8284 C   0  0  0  0  0  0  0  0  0  0  0  0
    0.7339    0.3115   -0.8268 N   0  0  0  0  0  0  0  0  0  0  0  0
    2.0961    0.6602   -0.4790 C   0  0  0  0  0  0  0  0  0  0  0  0
    3.0869   -0.0019   -1.4557 C   0  0  0  0  0  0  0  0  0  0  0  0
    4.4954    0.1207   -0.9513 C   0  0  0  0  0  0  0  0  0  0  0  0
    5.1794    1.3246   -1.0366 C   0  0  0  0  0  0  0  0  0  0  0  0
    6.4648    1.4503   -0.5344 C   0  0  0  0  0  0  0  0  0  0  0  0
    7.0988    0.3700    0.0640 C   0  0  0  0  0  0  0  0  0  0  0  0
    8.3396    0.3764    0.5877 O   0  0  0  0  0  0  0  0  0  0  0  0
    9.0980    1.5626    0.5453 C   0  0  0  0  0  0  0  0  0  0  0  0
    6.4115   -0.8723    0.1467 C   0  0  0  0  0  0  0  0  0  0  0  0
    7.1035   -1.8733    0.7275 O   0  0  0  0  0  0  0  0  0  0  0  0
    6.5285   -3.1559    0.8021 C   0  0  0  0  0  0  0  0  0  0  0  0
    5.1225   -0.9696   -0.3545 C   0  0  0  0  0  0  0  0  0  0  0  0
    0.3045   -1.0105   -0.4086 C   0  0  0  0  0  0  0  0  0  0  0  0
   -4.1552    2.7479    0.5591 C   0  0  0  0  0  0  0  0  0  0  0  0
   -4.8024    2.4071    1.9007 C   0  0  0  0  0  0  0  0  0  0  0  0
   -3.5613    4.1554    0.6237 C   0  0  0  0  0  0  0  0  0  0  0  0
   -5.1618    0.6089   -1.3059 H   0  0  0  0  0  0  0  0  0  0  0  0
   -7.3596   -0.0597   -1.8472 H   0  0  0  0  0  0  0  0  0  0  0  0
   -7.6931   -1.5716   -2.7244 H   0  0  0  0  0  0  0  0  0  0  0  0
   -6.1539   -0.7192   -2.9934 H   0  0  0  0  0  0  0  0  0  0  0  0
   -5.2810   -3.9828    2.5490 H   0  0  0  0  0  0  0  0  0  0  0  0
   -5.8137   -5.2335    1.3996 H   0  0  0  0  0  0  0  0  0  0  0  0
   -4.1183   -4.6902    1.3895 H   0  0  0  0  0  0  0  0  0  0  0  0
   -3.4689   -2.5535    2.0709 H   0  0  0  0  0  0  0  0  0  0  0  0
   -2.0302    1.9439    2.0648 H   0  0  0  0  0  0  0  0  0  0  0  0
   -3.4554    1.7577   -2.0187 H   0  0  0  0  0  0  0  0  0  0  0  0
   -2.2999    2.9536   -1.4401 H   0  0  0  0  0  0  0  0  0  0  0  0
   -1.7915   -0.0437   -1.4512 H   0  0  0  0  0  0  0  0  0  0  0  0
   -1.2166    1.0492   -2.7123 H   0  0  0  0  0  0  0  0  0  0  0  0
   -2.4462   -0.3723    1.8465 H   0  0  0  0  0  0  0  0  0  0  0  0
    0.2119    2.2453   -1.2468 H   0  0  0  0  0  0  0  0  0  0  0  0
    2.3450    0.3421    0.5447 H   0  0  0  0  0  0  0  0  0  0  0  0
    2.2197    1.7438   -0.5317 H   0  0  0  0  0  0  0  0  0  0  0  0
    2.9877    0.4760   -2.4308 H   0  0  0  0  0  0  0  0  0  0  0  0
    2.8225   -1.0530   -1.5667 H   0  0  0  0  0  0  0  0  0  0  0  0
    4.7127    2.1759   -1.5081 H   0  0  0  0  0  0  0  0  0  0  0  0
    6.9711    2.3980   -0.6189 H   0  0  0  0  0  0  0  0  0  0  0  0
    8.6089    2.3704    1.0983 H   0  0  0  0  0  0  0  0  0  0  0  0
    9.2827    1.8838   -0.4841 H   0  0  0  0  0  0  0  0  0  0  0  0
   10.0453    1.3203    1.0233 H   0  0  0  0  0  0  0  0  0  0  0  0
    7.2808   -3.7863    1.2723 H   0  0  0  0  0  0  0  0  0  0  0  0
    5.6226   -3.1556    1.4168 H   0  0  0  0  0  0  0  0  0  0  0  0
    6.2959   -3.5494   -0.1922 H   0  0  0  0  0  0  0  0  0  0  0  0
    4.5932   -1.9079   -0.2958 H   0  0  0  0  0  0  0  0  0  0  0  0
   -0.0169   -1.5971   -1.2716 H   0  0  0  0  0  0  0  0  0  0  0  0
   -0.5210   -0.9645    0.3071 H   0  0  0  0  0  0  0  0  0  0  0  0
    1.1332   -1.5317    0.0646 H   0  0  0  0  0  0  0  0  0  0  0  0
   -4.9387    2.7392   -0.2041 H   0  0  0  0  0  0  0  0  0  0  0  0
   -4.0927    2.4967    2.7190 H   0  0  0  0  0  0  0  0  0  0  0  0
   -5.2063    1.3986    1.9008 H   0  0  0  0  0  0  0  0  0  0  0  0
   -5.6176    3.0993    2.0940 H   0  0  0  0  0  0  0  0  0  0  0  0
   -2.7077    4.1887    1.2976 H   0  0  0  0  0  0  0  0  0  0  0  0
   -3.2457    4.5116   -0.3527 H   0  0  0  0  0  0  0  0  0  0  0  0
   -4.3120    4.8468    0.9974 H   0  0  0  0  0  0  0  0  0  0  0  0
    0.1005    1.7585    1.2083 H   0  0  0  0  0  0  0  0  0  0  0  0
  1  2  4  0  0  0  0
  2  3  1  0  0  0  0
  3  4  1  0  0  0  0
  4  5  4  0  0  0  0
  5  6  4  0  0  0  0
  6  7  1  0  0  0  0
  7  8  1  0  0  0  0
  6  9  4  0  0  0  0
  9 10  1  0  0  0  0
 10 11  1  0  0  0  0
  9 12  4  0  0  0  0
  4 13  4  0  0  0  0
 12 13  4  0  0  0  0
  3 14  1  0  0  0  0
 14 15  1  0  0  0  0
  1 16  1  0  0  0  0
 15 16  1  0  0  0  0
 16 17  1  0  0  0  0
 17 18  1  0  0  0  0
 18 19  1  0  0  0  0
 19 20  1  0  0  0  0
 20 21  4  0  0  0  0
 21 22  4  0  0  0  0
 22 23  4  0  0  0  0
 23 24  1  0  0  0  0
 24 25  1  0  0  0  0
 23 26  4  0  0  0  0
 26 27  1  0  0  0  0
 27 28  1  0  0  0  0
 20 29  4  0  0  0  0
 26 29  4  0  0  0  0
 17 30  1  0  0  0  0
  3 31  1  0  0  0  0
 31 32  1  0  0  0  0
 31 33  1  0  0  0  0
  5 34  1  0  0  0  0
  8 35  1  0  0  0  0
  8 36  1  0  0  0  0
  8 37  1  0  0  0  0
 11 38  1  0  0  0  0
 11 39  1  0  0  0  0
 11 40  1  0  0  0  0
 12 41  1  0  0  0  0
  2 42  1  0  0  0  0
 14 43  1  0  0  0  0
 14 44  1  0  0  0  0
 15 45  1  0  0  0  0
 15 46  1  0  0  0  0
 13 47  1  0  0  0  0
 16 48  1  0  0  0  0
 18 49  1  0  0  0  0
 18 50  1  0  0  0  0
 19 51  1  0  0  0  0
 19 52  1  0  0  0  0
 21 53  1  0  0  0  0
 22 54  1  0  0  0  0
 25 55  1  0  0  0  0
 25 56  1  0  0  0  0
 25 57  1  0  0  0  0
 28 58  1  0  0  0  0
 28 59  1  0  0  0  0
 28 60  1  0  0  0  0
 29 61  1  0  0  0  0
 30 62  1  0  0  0  0
 30 63  1  0  0  0  0
 30 64  1  0  0  0  0
 31 65  1  0  0  0  0
 32 66  1  0  0  0  0
 32 67  1  0  0  0  0
 32 68  1  0  0  0  0
 33 69  1  0  0  0  0
 33 70  1  0  0  0  0
 33 71  1  0  0  0  0
  1 72  1  0  0  0  0
M  CHG  1   1   1
M  END
