 xtb: 6.6.1 (8d0f1dd)
          04062411113D

 72 72  0     0  0            999 V2000
   -1.6519    1.2095    4.2318 N   0  0  0  0  0  0  0  0  0  0  0  0
   -0.7642    0.8485    3.4956 C   0  0  0  0  0  0  0  0  0  0  0  0
   -3.1764    1.7650   -0.4306 C   0  0  0  0  0  0  0  0  0  0  0  0
   -3.6002    0.4822   -0.0402 C   0  0  0  0  0  0  0  0  0  0  0  0
   -4.2911   -0.3723   -0.9484 C   0  0  0  0  0  0  0  0  0  0  0  0
   -4.6711   -1.6492   -0.6106 C   0  0  0  0  0  0  0  0  0  0  0  0
   -5.3450   -2.5053   -1.4127 O   0  0  0  0  0  0  0  0  0  0  0  0
   -5.7718   -2.0691   -2.6803 C   0  0  0  0  0  0  0  0  0  0  0  0
   -4.3538   -2.1695    0.6783 C   0  0  0  0  0  0  0  0  0  0  0  0
   -4.7421   -3.4363    0.9061 O   0  0  0  0  0  0  0  0  0  0  0  0
   -4.5246   -4.0061    2.1759 C   0  0  0  0  0  0  0  0  0  0  0  0
   -3.6850   -1.3434    1.5773 C   0  0  0  0  0  0  0  0  0  0  0  0
   -3.3280   -0.0574    1.2399 C   0  0  0  0  0  0  0  0  0  0  0  0
   -3.0383    2.0880   -1.8851 C   0  0  0  0  0  0  0  0  0  0  0  0
   -2.0288    1.1637   -2.6397 C   0  0  0  0  0  0  0  0  0  0  0  0
   -0.6529    1.3371   -2.1448 C   0  0  0  0  0  0  0  0  0  0  0  0
   -0.0016    0.4734   -1.3777 N   0  0  0  0  0  0  0  0  0  0  0  0
    1.3377    0.7557   -0.9206 C   0  0  0  0  0  0  0  0  0  0  0  0
    2.4083    0.1043   -1.8181 C   0  0  0  0  0  0  0  0  0  0  0  0
    3.7661    0.2693   -1.1947 C   0  0  0  0  0  0  0  0  0  0  0  0
    4.4578    1.4638   -1.3070 C   0  0  0  0  0  0  0  0  0  0  0  0
    5.6923    1.6286   -0.6975 C   0  0  0  0  0  0  0  0  0  0  0  0
    6.2603    0.5994    0.0392 C   0  0  0  0  0  0  0  0  0  0  0  0
    7.4481    0.6488    0.6739 O   0  0  0  0  0  0  0  0  0  0  0  0
    8.2221    1.8229    0.5904 C   0  0  0  0  0  0  0  0  0  0  0  0
    5.5605   -0.6317    0.1558 C   0  0  0  0  0  0  0  0  0  0  0  0
    6.1867   -1.5838    0.8801 O   0  0  0  0  0  0  0  0  0  0  0  0
    5.5940   -2.8541    1.0017 C   0  0  0  0  0  0  0  0  0  0  0  0
    4.3254   -0.7709   -0.4562 C   0  0  0  0  0  0  0  0  0  0  0  0
   -0.5327   -0.8334   -1.0697 C   0  0  0  0  0  0  0  0  0  0  0  0
   -2.8280    2.8805    0.5175 C   0  0  0  0  0  0  0  0  0  0  0  0
   -3.7529    2.9962    1.7351 C   0  0  0  0  0  0  0  0  0  0  0  0
   -1.3558    2.8421    0.9577 C   0  0  0  0  0  0  0  0  0  0  0  0
   -4.5899    0.0203   -1.9051 H   0  0  0  0  0  0  0  0  0  0  0  0
   -6.4419   -1.2073   -2.6051 H   0  0  0  0  0  0  0  0  0  0  0  0
   -6.3141   -2.9090   -3.1101 H   0  0  0  0  0  0  0  0  0  0  0  0
   -4.9242   -1.8187   -3.3273 H   0  0  0  0  0  0  0  0  0  0  0  0
   -5.0278   -3.4364    2.9624 H   0  0  0  0  0  0  0  0  0  0  0  0
   -4.9511   -5.0060    2.1247 H   0  0  0  0  0  0  0  0  0  0  0  0
   -3.4565   -4.0792    2.4040 H   0  0  0  0  0  0  0  0  0  0  0  0
   -3.4346   -1.7079    2.5608 H   0  0  0  0  0  0  0  0  0  0  0  0
   -2.7769    0.5192    1.9593 H   0  0  0  0  0  0  0  0  0  0  0  0
   -3.9990    1.9929   -2.3972 H   0  0  0  0  0  0  0  0  0  0  0  0
   -2.7086    3.1198   -2.0085 H   0  0  0  0  0  0  0  0  0  0  0  0
   -2.3575    0.1310   -2.5532 H   0  0  0  0  0  0  0  0  0  0  0  0
   -2.0627    1.4614   -3.6909 H   0  0  0  0  0  0  0  0  0  0  0  0
    0.2762    0.5679    3.5600 H   0  0  0  0  0  0  0  0  0  0  0  0
   -0.1515    2.2689   -2.3559 H   0  0  0  0  0  0  0  0  0  0  0  0
    1.4442    0.3781    0.0995 H   0  0  0  0  0  0  0  0  0  0  0  0
    1.4986    1.8349   -0.8999 H   0  0  0  0  0  0  0  0  0  0  0  0
    2.3819    0.5776   -2.8009 H   0  0  0  0  0  0  0  0  0  0  0  0
    2.1834   -0.9558   -1.9418 H   0  0  0  0  0  0  0  0  0  0  0  0
    4.0431    2.2771   -1.8826 H   0  0  0  0  0  0  0  0  0  0  0  0
    6.2093    2.5676   -0.8072 H   0  0  0  0  0  0  0  0  0  0  0  0
    7.6989    2.6802    1.0252 H   0  0  0  0  0  0  0  0  0  0  0  0
    8.4973    2.0486   -0.4441 H   0  0  0  0  0  0  0  0  0  0  0  0
    9.1225    1.6201    1.1671 H   0  0  0  0  0  0  0  0  0  0  0  0
    6.2913   -3.4470    1.5904 H   0  0  0  0  0  0  0  0  0  0  0  0
    4.6337   -2.8020    1.5255 H   0  0  0  0  0  0  0  0  0  0  0  0
    5.4527   -3.3269    0.0247 H   0  0  0  0  0  0  0  0  0  0  0  0
    3.7883   -1.7033   -0.3768 H   0  0  0  0  0  0  0  0  0  0  0  0
   -0.7293   -1.4027   -1.9803 H   0  0  0  0  0  0  0  0  0  0  0  0
   -1.4613   -0.7475   -0.5019 H   0  0  0  0  0  0  0  0  0  0  0  0
    0.1891   -1.3818   -0.4708 H   0  0  0  0  0  0  0  0  0  0  0  0
   -2.9527    3.8079   -0.0555 H   0  0  0  0  0  0  0  0  0  0  0  0
   -3.4483    2.3478    2.5490 H   0  0  0  0  0  0  0  0  0  0  0  0
   -4.7763    2.7556    1.4610 H   0  0  0  0  0  0  0  0  0  0  0  0
   -3.7299    4.0194    2.1028 H   0  0  0  0  0  0  0  0  0  0  0  0
   -1.1431    1.9553    1.5560 H   0  0  0  0  0  0  0  0  0  0  0  0
   -0.6985    2.8507    0.0918 H   0  0  0  0  0  0  0  0  0  0  0  0
   -1.1395    3.7180    1.5641 H   0  0  0  0  0  0  0  0  0  0  0  0
   -1.6914    1.3785    5.2355 H   0  0  0  0  0  0  0  0  0  0  0  0
  1  2  2  0  0  0  0
  3  4  4  0  0  0  0
  4  5  4  0  0  0  0
  5  6  4  0  0  0  0
  6  7  1  0  0  0  0
  7  8  1  0  0  0  0
  6  9  1  0  0  0  0
  9 10  1  0  0  0  0
 10 11  1  0  0  0  0
  9 12  4  0  0  0  0
  4 13  4  0  0  0  0
 12 13  4  0  0  0  0
  3 14  1  0  0  0  0
 14 15  1  0  0  0  0
 15 16  1  0  0  0  0
 16 17  4  0  0  0  0
 17 18  1  0  0  0  0
 18 19  1  0  0  0  0
 19 20  1  0  0  0  0
 20 21  4  0  0  0  0
 21 22  4  0  0  0  0
 22 23  4  0  0  0  0
 23 24  1  0  0  0  0
 24 25  1  0  0  0  0
 23 26  4  0  0  0  0
 26 27  1  0  0  0  0
 27 28  1  0  0  0  0
 20 29  4  0  0  0  0
 26 29  4  0  0  0  0
 17 30  1  0  0  0  0
  3 31  1  0  0  0  0
 31 32  1  0  0  0  0
 31 33  1  0  0  0  0
  5 34  1  0  0  0  0
  8 35  1  0  0  0  0
  8 36  1  0  0  0  0
  8 37  1  0  0  0  0
 11 38  1  0  0  0  0
 11 39  1  0  0  0  0
 11 40  1  0  0  0  0
 12 41  1  0  0  0  0
 13 42  1  0  0  0  0
 14 43  1  0  0  0  0
 14 44  1  0  0  0  0
 15 45  1  0  0  0  0
 15 46  1  0  0  0  0
  2 47  1  0  0  0  0
 16 48  1  0  0  0  0
 18 49  1  0  0  0  0
 18 50  1  0  0  0  0
 19 51  1  0  0  0  0
 19 52  1  0  0  0  0
 21 53  1  0  0  0  0
 22 54  1  0  0  0  0
 25 55  1  0  0  0  0
 25 56  1  0  0  0  0
 25 57  1  0  0  0  0
 28 58  1  0  0  0  0
 28 59  1  0  0  0  0
 28 60  1  0  0  0  0
 29 61  1  0  0  0  0
 30 62  1  0  0  0  0
 30 63  1  0  0  0  0
 30 64  1  0  0  0  0
 31 65  1  0  0  0  0
 32 66  1  0  0  0  0
 32 67  1  0  0  0  0
 32 68  1  0  0  0  0
 33 69  1  0  0  0  0
 33 70  1  0  0  0  0
 33 71  1  0  0  0  0
  1 72  1  0  0  0  0
M  CHG  1   1   1
M  END
