 xtb: 6.6.1 (8d0f1dd)
          06052419573D

 25 25  0     0  0            999 V2000
    4.2528    0.4807   -0.0417 C   0  0  0  0  0  0  0  0  0  0  0  0
    3.4179   -0.4224    0.2312 N   0  0  0  0  0  0  0  0  0  0  0  0
    2.7298   -1.4727    0.0201 C   0  0  0  0  0  0  0  0  0  0  0  0
    1.3973   -1.6003    0.0562 N   0  0  0  0  0  0  0  0  0  0  0  0
    0.4200   -0.6002    0.0636 C   0  0  0  0  0  0  0  0  0  0  0  0
    0.7122    0.7246    0.1128 C   0  0  0  0  0  0  0  0  0  0  0  0
   -0.3255    1.7321    0.0829 C   0  0  0  0  0  0  0  0  0  0  0  0
   -0.1130    2.9222    0.1102 O   0  0  0  0  0  0  0  0  0  0  0  0
   -1.6178    1.2199    0.0099 N   0  0  0  0  0  0  0  0  0  0  0  0
   -2.7258    2.1574   -0.0330 C   0  0  0  0  0  0  0  0  0  0  0  0
   -1.9456   -0.1094   -0.0250 C   0  0  0  0  0  0  0  0  0  0  0  0
   -3.0834   -0.4945   -0.0819 O   0  0  0  0  0  0  0  0  0  0  0  0
   -0.8755   -1.0268    0.0033 N   0  0  0  0  0  0  0  0  0  0  0  0
   -1.2401   -2.4314   -0.0405 C   0  0  0  0  0  0  0  0  0  0  0  0
    4.7140    1.0346    0.7615 H   0  0  0  0  0  0  0  0  0  0  0  0
    4.5082    0.7415   -1.0612 H   0  0  0  0  0  0  0  0  0  0  0  0
    1.7155    1.0946    0.1772 H   0  0  0  0  0  0  0  0  0  0  0  0
    3.2795   -2.4080   -0.0536 H   0  0  0  0  0  0  0  0  0  0  0  0
   -2.3111    3.1633   -0.0265 H   0  0  0  0  0  0  0  0  0  0  0  0
   -3.3147    1.9935   -0.9354 H   0  0  0  0  0  0  0  0  0  0  0  0
   -3.3727    2.0086    0.8316 H   0  0  0  0  0  0  0  0  0  0  0  0
   -0.9103   -2.9559    0.8579 H   0  0  0  0  0  0  0  0  0  0  0  0
   -0.8577   -2.9147   -0.9414 H   0  0  0  0  0  0  0  0  0  0  0  0
   -2.3305   -2.4711   -0.0739 H   0  0  0  0  0  0  0  0  0  0  0  0
    1.0368   -2.5474    0.0268 H   0  0  0  0  0  0  0  0  0  0  0  0
  1  2  2  0  0  0  0
  2  3  2  0  0  0  0
  3  4  4  0  0  0  0
  4  5  1  0  0  0  0
  5  6  2  0  0  0  0
  6  7  1  0  0  0  0
  7  8  2  0  0  0  0
  7  9  1  0  0  0  0
  9 10  1  0  0  0  0
  9 11  1  0  0  0  0
 11 12  2  0  0  0  0
  5 13  1  0  0  0  0
 11 13  1  0  0  0  0
 13 14  1  0  0  0  0
  1 15  1  0  0  0  0
  1 16  1  0  0  0  0
  6 17  1  0  0  0  0
  3 18  1  0  0  0  0
 10 19  1  0  0  0  0
 10 20  1  0  0  0  0
 10 21  1  0  0  0  0
 14 22  1  0  0  0  0
 14 23  1  0  0  0  0
 14 24  1  0  0  0  0
  4 25  1  0  0  0  0
M  CHG  1   1   1
M  END
