          25
 
C              2.76559333        0.33149255       -0.34621265
C              2.97525044       -0.17424469       -1.71596999
C              4.20770181        0.05791879       -0.82968748
C              5.04094934        1.21258696       -1.09131464
C              6.36958939        1.21302623       -0.79161721
C              6.99318406        0.08616372       -0.23101271
O              8.27722823        0.00010424        0.10635732
C              9.13271945        1.10714017       -0.08231288
C              6.21340124       -1.09848578        0.01388620
O              6.91496323       -2.12403468        0.53376760
C              6.25030722       -3.33639118        0.80797112
C              4.88165104       -1.10798889       -0.27671317
H              2.39839743       -0.33795213        0.41533039
H              2.50617067        1.36905148       -0.20227137
H              2.84267613        0.50200931       -2.54590715
H              2.73048903       -1.20086606       -1.93921192
H              4.57967475        2.08850304       -1.51973988
H              6.95164550        2.09856869       -0.98972085
H              8.80529120        1.96757710        0.50805242
H              9.19577721        1.38737319       -1.13727793
H             10.11111834        0.78109422        0.26466008
H              7.01012902       -3.99929284        1.21633775
H              5.45482905       -3.19828924        1.54665224
H              5.83420346       -3.77846597       -0.10234289
H              4.28109964       -1.98507589       -0.09779339
