          70
 
N             -3.32405645        3.19707534        3.05095094
C             -3.23916930        2.07519859        2.49953653
C             -3.39226615        1.87957182        1.00275055
C             -4.09297009        0.57263568        0.69606171
C             -3.93597248       -0.00827391       -0.56241575
C             -4.59497203       -1.17853990       -0.90045999
O             -4.50639296       -1.80917767       -2.09107384
C             -3.77353845       -1.21141026       -3.13169432
C             -5.44432872       -1.80509215        0.05301875
O             -6.02504313       -2.94871581       -0.35552755
C             -6.90278109       -3.62440362        0.51775917
C             -5.61379276       -1.20495186        1.29199932
C             -4.95044959       -0.02793594        1.60571233
C             -1.92622494        1.85000533        0.69150587
C             -1.15392750        0.71924010        0.70207386
C              0.23560264        0.77131383        0.59869354
N              1.06087137       -0.27690809        0.61329102
C              2.48895261       -0.09992569        0.52462564
C              3.03249822       -0.35739663       -0.89531015
C              4.52819336       -0.21159234       -0.89582527
C              5.12033147        1.02428522       -1.10681009
C              6.49797457        1.16988702       -1.06367708
C              7.31576342        0.07894167       -0.80393258
O              8.65799170        0.09903457       -0.73429000
C              9.34342743        1.31538572       -0.92696654
C              6.71782791       -1.19507881       -0.58865660
O              7.58411931       -2.19782753       -0.35088646
C              7.09596956       -3.50189783       -0.14651637
C              5.33741621       -1.31444256       -0.63412478
C              0.55330005       -1.62711922        0.63892862
C             -4.16496512        3.02244109        0.28013383
C             -5.56418326        3.17444594        0.87184032
C             -3.45367734        4.37261539        0.29762814
H             -3.29081537        0.47316136       -1.28038325
H             -4.17014366       -0.22417919       -3.38647085
H             -3.88483386       -1.87646940       -3.98591126
H             -2.71196160       -1.12087400       -2.87893831
H             -7.77603593       -3.01113803        0.75849162
H             -7.22304603       -4.51329837       -0.02222240
H             -6.39811810       -3.92229737        1.44177621
H             -6.27303648       -1.64279654        2.02346383
H             -5.12453069        0.42486931        2.56942058
H             -1.44149845        2.81047048        0.61148012
H             -1.64108663       -0.23974720        0.79924602
H             -2.96506599        1.14677084        3.01876418
H              0.70927605        1.74040575        0.52881750
H              2.97361642       -0.78850869        1.22292399
H              2.74473834        0.91861165        0.82256375
H              2.58338357        0.36160428       -1.58216156
H              2.75420473       -1.36225172       -1.21568593
H              4.50693121        1.88710878       -1.31685886
H              6.92900606        2.14227219       -1.23720470
H              9.05665626        2.05936022       -0.17787115
H              9.16955122        1.71865263       -1.92880849
H             10.39867949        1.07549915       -0.81229866
H              7.97605851       -4.12057718        0.01730601
H              6.44838383       -3.55520401        0.73429044
H              6.55379397       -3.86913459       -1.02348517
H              4.87724952       -2.27723923       -0.47588110
H             -0.02198081       -1.84691963       -0.26354480
H             -0.09291761       -1.77727736        1.50530570
H              1.38233152       -2.32622633        0.70339927
H             -4.26882956        2.70207358       -0.76376891
H             -5.49916198        3.53108503        1.89586300
H             -6.10407422        2.23071402        0.85713911
H             -6.13052744        3.89865123        0.29252739
H             -3.18920358        4.64323578        1.31532835
H             -2.56389415        4.37254708       -0.32714260
H             -4.12715170        5.13030045       -0.09471908
H             -3.15293884        3.24749630        4.04967925
