          22
 
C              2.17603256        1.65804894        0.03703035
N              2.09310223        0.25629783        0.06462262
N              0.84592036       -2.40740538        0.12867281
C              0.16893126       -1.34666328        0.07440364
C              0.83296976       -0.05688831        0.05118778
C              0.04249152        1.13844615        0.01622188
O              0.82915597        2.18869924        0.00952339
N             -1.27433170        1.13899089       -0.00382525
C             -2.06961513        2.35127957       -0.03358332
C             -1.98234553       -0.10117284       -0.01181825
O             -3.17973354       -0.08374496       -0.05395921
N             -1.22953674       -1.25274250        0.02905908
C             -1.97645079       -2.50493743        0.01708562
H              2.69854319        2.04518627        0.92344717
H              2.71990709        2.01302810       -0.84843346
H             -1.40646107        3.21161992       -0.03004418
H             -2.69363354        2.35511904       -0.92746260
H             -2.72803166        2.37374205        0.83546901
H             -1.79758573       -3.06004542        0.93931765
H             -1.68185336       -3.10720723       -0.84306288
H             -3.03686395       -2.27317929       -0.05674692
H              0.38989087       -3.30863966        0.15025585
