 xtb: 6.6.1 (8d0f1dd)
          04062411133D

 72 74  0     0  0            999 V2000
   -0.8861    2.2884    0.0125 N   0  0  0  0  0  0  0  0  0  0  0  0
   -2.1354    2.3089    0.4498 C   0  0  0  0  0  0  0  0  0  0  0  0
   -3.2698    1.7339   -0.3130 C   0  0  0  0  0  0  0  0  0  0  0  0
   -3.6606    0.3702    0.2675 C   0  0  0  0  0  0  0  0  0  0  0  0
   -4.7016   -0.3547   -0.3109 C   0  0  0  0  0  0  0  0  0  0  0  0
   -5.0828   -1.5886    0.1888 C   0  0  0  0  0  0  0  0  0  0  0  0
   -6.0779   -2.3533   -0.3024 O   0  0  0  0  0  0  0  0  0  0  0  0
   -6.8193   -1.8936   -1.4074 C   0  0  0  0  0  0  0  0  0  0  0  0
   -4.4006   -2.1317    1.3110 C   0  0  0  0  0  0  0  0  0  0  0  0
   -4.8398   -3.3340    1.7317 O   0  0  0  0  0  0  0  0  0  0  0  0
   -4.2577   -3.9111    2.8772 C   0  0  0  0  0  0  0  0  0  0  0  0
   -3.3642   -1.4066    1.8748 C   0  0  0  0  0  0  0  0  0  0  0  0
   -2.9986   -0.1727    1.3557 C   0  0  0  0  0  0  0  0  0  0  0  0
   -2.8137    1.5326   -1.7710 C   0  0  0  0  0  0  0  0  0  0  0  0
   -1.5094    0.7444   -1.7896 C   0  0  0  0  0  0  0  0  0  0  0  0
   -0.3860    1.5797   -1.1758 C   0  0  0  0  0  0  0  0  0  0  0  0
    0.7820    0.8078   -0.8868 N   0  0  0  0  0  0  0  0  0  0  0  0
    2.0613    1.5163   -0.8480 C   0  0  0  0  0  0  0  0  0  0  0  0
    3.1449    0.5849   -1.2991 C   0  0  0  0  0  0  0  0  0  0  0  0
    4.4072    0.4510   -0.8412 C   0  0  0  0  0  0  0  0  0  0  0  0
    5.0539    1.3171    0.2038 C   0  0  0  0  0  0  0  0  0  0  0  0
    6.0597    0.5887    1.0360 C   0  0  0  0  0  0  0  0  0  0  0  0
    6.6941   -0.5079    0.5814 C   0  0  0  0  0  0  0  0  0  0  0  0
    7.6399   -1.2235    1.2202 O   0  0  0  0  0  0  0  0  0  0  0  0
    8.0509   -0.8093    2.5020 C   0  0  0  0  0  0  0  0  0  0  0  0
    6.3415   -1.0501   -0.7345 C   0  0  0  0  0  0  0  0  0  0  0  0
    7.1595   -2.0250   -1.1513 O   0  0  0  0  0  0  0  0  0  0  0  0
    6.9277   -2.6303   -2.4022 C   0  0  0  0  0  0  0  0  0  0  0  0
    5.2373   -0.5922   -1.3824 C   0  0  0  0  0  0  0  0  0  0  0  0
    0.6810   -0.1629    0.1828 C   0  0  0  0  0  0  0  0  0  0  0  0
   -4.4981    2.6960   -0.2258 C   0  0  0  0  0  0  0  0  0  0  0  0
   -5.1372    2.6934    1.1613 C   0  0  0  0  0  0  0  0  0  0  0  0
   -4.1452    4.1287   -0.6198 C   0  0  0  0  0  0  0  0  0  0  0  0
   -5.2325    0.0563   -1.1533 H   0  0  0  0  0  0  0  0  0  0  0  0
   -7.3423   -0.9595   -1.1818 H   0  0  0  0  0  0  0  0  0  0  0  0
   -7.5512   -2.6714   -1.6117 H   0  0  0  0  0  0  0  0  0  0  0  0
   -6.1847   -1.7555   -2.2885 H   0  0  0  0  0  0  0  0  0  0  0  0
   -4.3873   -3.2723    3.7556 H   0  0  0  0  0  0  0  0  0  0  0  0
   -4.7854   -4.8493    3.0329 H   0  0  0  0  0  0  0  0  0  0  0  0
   -3.1934   -4.1152    2.7278 H   0  0  0  0  0  0  0  0  0  0  0  0
   -2.8290   -1.7919    2.7271 H   0  0  0  0  0  0  0  0  0  0  0  0
   -2.1883    0.3655    1.8228 H   0  0  0  0  0  0  0  0  0  0  0  0
   -3.5758    0.9937   -2.3298 H   0  0  0  0  0  0  0  0  0  0  0  0
   -2.6615    2.4980   -2.2529 H   0  0  0  0  0  0  0  0  0  0  0  0
   -1.6475   -0.1811   -1.2327 H   0  0  0  0  0  0  0  0  0  0  0  0
   -1.2251    0.4864   -2.8089 H   0  0  0  0  0  0  0  0  0  0  0  0
   -2.3200    2.7895    1.3968 H   0  0  0  0  0  0  0  0  0  0  0  0
   -0.0915    2.3530   -1.9024 H   0  0  0  0  0  0  0  0  0  0  0  0
    2.2773    1.9114    0.1576 H   0  0  0  0  0  0  0  0  0  0  0  0
    2.0081    2.3660   -1.5378 H   0  0  0  0  0  0  0  0  0  0  0  0
    5.6047    2.1314   -0.2999 H   0  0  0  0  0  0  0  0  0  0  0  0
    2.8178   -0.0753   -2.0908 H   0  0  0  0  0  0  0  0  0  0  0  0
    4.3091    1.7905    0.8454 H   0  0  0  0  0  0  0  0  0  0  0  0
    6.3080    1.0320    1.9862 H   0  0  0  0  0  0  0  0  0  0  0  0
    7.2145   -0.8065    3.2068 H   0  0  0  0  0  0  0  0  0  0  0  0
    8.5063    0.1845    2.4737 H   0  0  0  0  0  0  0  0  0  0  0  0
    8.7915   -1.5386    2.8219 H   0  0  0  0  0  0  0  0  0  0  0  0
    7.7340   -3.3486   -2.5352 H   0  0  0  0  0  0  0  0  0  0  0  0
    5.9674   -3.1544   -2.4197 H   0  0  0  0  0  0  0  0  0  0  0  0
    6.9559   -1.8944   -3.2111 H   0  0  0  0  0  0  0  0  0  0  0  0
    4.9034   -1.0623   -2.2936 H   0  0  0  0  0  0  0  0  0  0  0  0
   -0.1859   -0.8009    0.0392 H   0  0  0  0  0  0  0  0  0  0  0  0
    0.6156    0.3043    1.1759 H   0  0  0  0  0  0  0  0  0  0  0  0
    1.5759   -0.7840    0.1594 H   0  0  0  0  0  0  0  0  0  0  0  0
   -5.2379    2.3215   -0.9387 H   0  0  0  0  0  0  0  0  0  0  0  0
   -4.4836    3.1496    1.9003 H   0  0  0  0  0  0  0  0  0  0  0  0
   -5.3756    1.6849    1.4874 H   0  0  0  0  0  0  0  0  0  0  0  0
   -6.0590    3.2694    1.1361 H   0  0  0  0  0  0  0  0  0  0  0  0
   -3.3928    4.5469    0.0448 H   0  0  0  0  0  0  0  0  0  0  0  0
   -3.7797    4.1927   -1.6405 H   0  0  0  0  0  0  0  0  0  0  0  0
   -5.0365    4.7484   -0.5504 H   0  0  0  0  0  0  0  0  0  0  0  0
   -0.1736    2.7548    0.5583 H   0  0  0  0  0  0  0  0  0  0  0  0
  1  2  4  0  0  0  0
  2  3  1  0  0  0  0
  3  4  1  0  0  0  0
  4  5  4  0  0  0  0
  5  6  4  0  0  0  0
  6  7  1  0  0  0  0
  7  8  1  0  0  0  0
  6  9  4  0  0  0  0
  9 10  1  0  0  0  0
 10 11  1  0  0  0  0
  9 12  4  0  0  0  0
  4 13  4  0  0  0  0
 12 13  4  0  0  0  0
  3 14  1  0  0  0  0
 14 15  1  0  0  0  0
  1 16  1  0  0  0  0
 15 16  1  0  0  0  0
 16 17  1  0  0  0  0
 17 18  1  0  0  0  0
 18 19  1  0  0  0  0
 19 20  2  0  0  0  0
 20 21  1  0  0  0  0
 21 22  1  0  0  0  0
 22 23  2  0  0  0  0
 23 24  1  0  0  0  0
 24 25  1  0  0  0  0
 23 26  1  0  0  0  0
 26 27  1  0  0  0  0
 27 28  1  0  0  0  0
 20 29  1  0  0  0  0
 26 29  2  0  0  0  0
 17 30  1  0  0  0  0
  3 31  1  0  0  0  0
 31 32  1  0  0  0  0
 31 33  1  0  0  0  0
  5 34  1  0  0  0  0
  8 35  1  0  0  0  0
  8 36  1  0  0  0  0
  8 37  1  0  0  0  0
 11 38  1  0  0  0  0
 11 39  1  0  0  0  0
 11 40  1  0  0  0  0
 12 41  1  0  0  0  0
 13 42  1  0  0  0  0
 14 43  1  0  0  0  0
 14 44  1  0  0  0  0
 15 45  1  0  0  0  0
 15 46  1  0  0  0  0
  2 47  1  0  0  0  0
 16 48  1  0  0  0  0
 18 49  1  0  0  0  0
 18 50  1  0  0  0  0
 21 51  1  0  0  0  0
 19 52  1  0  0  0  0
 21 53  1  0  0  0  0
 22 54  1  0  0  0  0
 25 55  1  0  0  0  0
 25 56  1  0  0  0  0
 25 57  1  0  0  0  0
 28 58  1  0  0  0  0
 28 59  1  0  0  0  0
 28 60  1  0  0  0  0
 29 61  1  0  0  0  0
 30 62  1  0  0  0  0
 30 63  1  0  0  0  0
 30 64  1  0  0  0  0
 31 65  1  0  0  0  0
 32 66  1  0  0  0  0
 32 67  1  0  0  0  0
 32 68  1  0  0  0  0
 33 69  1  0  0  0  0
 33 70  1  0  0  0  0
 33 71  1  0  0  0  0
  1 72  1  0  0  0  0
M  CHG  1   1   1
M  END
