 xtb: 6.6.1 (8d0f1dd)
          06052419583D

 25 26  0     0  0            999 V2000
    3.2680    0.9588   -0.2302 C   0  0  0  0  0  0  0  0  0  0  0  0
    2.3790   -0.0216   -0.1706 N   0  0  0  0  0  0  0  0  0  0  0  0
    2.5961   -1.3547   -0.1331 C   0  0  0  0  0  0  0  0  0  0  0  0
    1.3950   -2.0295   -0.0858 N   0  0  0  0  0  0  0  0  0  0  0  0
    0.4002   -1.1448   -0.0919 C   0  0  0  0  0  0  0  0  0  0  0  0
    0.9849    0.1434   -0.1112 C   0  0  0  0  0  0  0  0  0  0  0  0
    0.1881    1.2582    0.0767 C   0  0  0  0  0  0  0  0  0  0  0  0
    0.6328    2.4898    0.2505 O   0  0  0  0  0  0  0  0  0  0  0  0
   -1.1522    1.0545    0.1233 N   0  0  0  0  0  0  0  0  0  0  0  0
   -2.0688    2.1745    0.2824 C   0  0  0  0  0  0  0  0  0  0  0  0
   -1.7789   -0.2029    0.0385 C   0  0  0  0  0  0  0  0  0  0  0  0
   -2.9709   -0.2992    0.0577 O   0  0  0  0  0  0  0  0  0  0  0  0
   -0.9431   -1.3146   -0.0448 N   0  0  0  0  0  0  0  0  0  0  0  0
   -1.5361   -2.6387   -0.0705 C   0  0  0  0  0  0  0  0  0  0  0  0
    1.6035    2.5009    0.3603 H   0  0  0  0  0  0  0  0  0  0  0  0
    4.3056    0.7192   -0.1879 H   0  0  0  0  0  0  0  0  0  0  0  0
    2.9879    1.9413   -0.5496 H   0  0  0  0  0  0  0  0  0  0  0  0
    3.5532   -1.8247   -0.1477 H   0  0  0  0  0  0  0  0  0  0  0  0
   -1.5046    3.1006    0.3141 H   0  0  0  0  0  0  0  0  0  0  0  0
   -2.7680    2.1865   -0.5531 H   0  0  0  0  0  0  0  0  0  0  0  0
   -2.6409    2.0493    1.2012 H   0  0  0  0  0  0  0  0  0  0  0  0
   -1.3040   -3.1787    0.8488 H   0  0  0  0  0  0  0  0  0  0  0  0
   -1.1727   -3.1960   -0.9338 H   0  0  0  0  0  0  0  0  0  0  0  0
   -2.6158   -2.5185   -0.1479 H   0  0  0  0  0  0  0  0  0  0  0  0
    1.3220   -3.0348   -0.0642 H   0  0  0  0  0  0  0  0  0  0  0  0
  1  2  4  0  0  0  0
  2  3  4  0  0  0  0
  3  4  1  0  0  0  0
  4  5  4  0  0  0  0
  2  6  1  0  0  0  0
  5  6  4  0  0  0  0
  6  7  4  0  0  0  0
  7  8  1  0  0  0  0
  7  9  4  0  0  0  0
  9 10  1  0  0  0  0
  9 11  1  0  0  0  0
 11 12  2  0  0  0  0
  5 13  1  0  0  0  0
 11 13  1  0  0  0  0
 13 14  1  0  0  0  0
  8 15  1  0  0  0  0
  1 16  1  0  0  0  0
  1 17  1  0  0  0  0
  3 18  1  0  0  0  0
 10 19  1  0  0  0  0
 10 20  1  0  0  0  0
 10 21  1  0  0  0  0
 14 22  1  0  0  0  0
 14 23  1  0  0  0  0
 14 24  1  0  0  0  0
  4 25  1  0  0  0  0
M  CHG  1   1   1
M  END
