 xtb: 6.6.1 (8d0f1dd)
          06052420003D

 25 26  0     0  0            999 V2000
    3.4173    0.7076    0.0691 C   0  0  0  0  0  0  0  0  0  0  0  0
    2.4542   -0.1993    0.0282 N   0  0  0  0  0  0  0  0  0  0  0  0
    2.5787   -1.5465   -0.0191 C   0  0  0  0  0  0  0  0  0  0  0  0
    1.3384   -2.1329   -0.0523 N   0  0  0  0  0  0  0  0  0  0  0  0
    0.4082   -1.1675   -0.0286 C   0  0  0  0  0  0  0  0  0  0  0  0
    1.0743    0.0743    0.0221 C   0  0  0  0  0  0  0  0  0  0  0  0
    0.3220    1.2454    0.0518 C   0  0  0  0  0  0  0  0  0  0  0  0
    0.8620    2.4556    0.1098 O   0  0  0  0  0  0  0  0  0  0  0  0
   -1.0469    1.0976    0.0176 N   0  0  0  0  0  0  0  0  0  0  0  0
   -1.8838    2.2912    0.0016 C   0  0  0  0  0  0  0  0  0  0  0  0
   -1.7311   -0.1294   -0.0038 C   0  0  0  0  0  0  0  0  0  0  0  0
   -2.9293   -0.1815   -0.0029 O   0  0  0  0  0  0  0  0  0  0  0  0
   -0.9452   -1.2752   -0.0299 N   0  0  0  0  0  0  0  0  0  0  0  0
   -1.5906   -2.5733   -0.0667 C   0  0  0  0  0  0  0  0  0  0  0  0
    3.1586    1.7446    0.1117 H   0  0  0  0  0  0  0  0  0  0  0  0
    4.4387    0.3850    0.0652 H   0  0  0  0  0  0  0  0  0  0  0  0
    0.2021    3.1744    0.1246 H   0  0  0  0  0  0  0  0  0  0  0  0
    3.5040   -2.0780   -0.0299 H   0  0  0  0  0  0  0  0  0  0  0  0
   -1.6475    2.9144   -0.8621 H   0  0  0  0  0  0  0  0  0  0  0  0
   -2.9185    1.9593   -0.0937 H   0  0  0  0  0  0  0  0  0  0  0  0
   -1.7870    2.8544    0.9326 H   0  0  0  0  0  0  0  0  0  0  0  0
   -1.2949   -3.1677    0.7979 H   0  0  0  0  0  0  0  0  0  0  0  0
   -1.3351   -3.0972   -0.9876 H   0  0  0  0  0  0  0  0  0  0  0  0
   -2.6665   -2.4098   -0.0362 H   0  0  0  0  0  0  0  0  0  0  0  0
    1.1787   -3.1273   -0.0883 H   0  0  0  0  0  0  0  0  0  0  0  0
  1  2  4  0  0  0  0
  2  3  4  0  0  0  0
  3  4  1  0  0  0  0
  4  5  4  0  0  0  0
  2  6  1  0  0  0  0
  5  6  4  0  0  0  0
  6  7  4  0  0  0  0
  7  8  1  0  0  0  0
  7  9  1  0  0  0  0
  9 10  1  0  0  0  0
  9 11  1  0  0  0  0
 11 12  2  0  0  0  0
  5 13  1  0  0  0  0
 11 13  1  0  0  0  0
 13 14  1  0  0  0  0
  1 15  1  0  0  0  0
  1 16  1  0  0  0  0
  8 17  1  0  0  0  0
  3 18  1  0  0  0  0
 10 19  1  0  0  0  0
 10 20  1  0  0  0  0
 10 21  1  0  0  0  0
 14 22  1  0  0  0  0
 14 23  1  0  0  0  0
 14 24  1  0  0  0  0
  4 25  1  0  0  0  0
M  CHG  1   1   1
M  END
