 xtb: 6.6.1 (8d0f1dd)
          06052420003D

 25 25  0     0  0            999 V2000
    5.0379    0.1275    0.0895 C   0  0  0  0  0  0  0  0  0  0  0  0
    3.7026   -0.2318   -0.0273 N   0  0  0  0  0  0  0  0  0  0  0  0
    3.1653   -1.3880   -0.2976 C   0  0  0  0  0  0  0  0  0  0  0  0
    1.9357   -1.7017   -0.3971 N   0  0  0  0  0  0  0  0  0  0  0  0
   -0.3955   -0.0916   -0.0113 C   0  0  0  0  0  0  0  0  0  0  0  0
   -0.4260    2.5360    0.4137 C   0  0  0  0  0  0  0  0  0  0  0  0
   -1.0045    1.2245   -0.0538 C   0  0  0  0  0  0  0  0  0  0  0  0
   -0.4733    2.3091   -0.8204 O   0  0  0  0  0  0  0  0  0  0  0  0
   -2.4134    1.0300   -0.0433 N   0  0  0  0  0  0  0  0  0  0  0  0
   -3.3932    2.0838   -0.0156 C   0  0  0  0  0  0  0  0  0  0  0  0
   -2.6745   -0.2905    0.1116 C   0  0  0  0  0  0  0  0  0  0  0  0
   -3.7115   -0.8690    0.2195 O   0  0  0  0  0  0  0  0  0  0  0  0
   -1.3710   -0.9408    0.1152 N   0  0  0  0  0  0  0  0  0  0  0  0
   -1.2879   -2.3680    0.2477 C   0  0  0  0  0  0  0  0  0  0  0  0
    5.1980    0.5783    1.0768 H   0  0  0  0  0  0  0  0  0  0  0  0
    5.7436   -0.7050   -0.0413 H   0  0  0  0  0  0  0  0  0  0  0  0
    5.2642    0.9059   -0.6505 H   0  0  0  0  0  0  0  0  0  0  0  0
    3.8464   -2.2413   -0.4712 H   0  0  0  0  0  0  0  0  0  0  0  0
   -3.1443    2.8035    0.7687 H   0  0  0  0  0  0  0  0  0  0  0  0
   -3.4280    2.5990   -0.9782 H   0  0  0  0  0  0  0  0  0  0  0  0
   -4.3653    1.6365    0.1891 H   0  0  0  0  0  0  0  0  0  0  0  0
   -0.9455   -2.6321    1.2495 H   0  0  0  0  0  0  0  0  0  0  0  0
   -0.5875   -2.7751   -0.4803 H   0  0  0  0  0  0  0  0  0  0  0  0
   -2.2850   -2.7809    0.0934 H   0  0  0  0  0  0  0  0  0  0  0  0
    1.1732   -1.0001   -0.2558 H   0  0  0  0  0  0  0  0  0  0  0  0
  1  2  1  0  0  0  0
  2  3  4  0  0  0  0
  3  4  2  0  0  0  0
  5  7  1  0  0  0  0
  6  7  1  0  0  0  0
  6  8  2  0  0  0  0
  7  8  1  0  0  0  0
  7  9  1  0  0  0  0
  9 10  1  0  0  0  0
  9 11  1  0  0  0  0
 11 12  2  0  0  0  0
  5 13  2  0  0  0  0
 11 13  1  0  0  0  0
 13 14  1  0  0  0  0
  1 15  1  0  0  0  0
  1 16  1  0  0  0  0
  1 17  1  0  0  0  0
  3 18  1  0  0  0  0
 10 19  1  0  0  0  0
 10 20  1  0  0  0  0
 10 21  1  0  0  0  0
 14 22  1  0  0  0  0
 14 23  1  0  0  0  0
 14 24  1  0  0  0  0
  4 25  1  0  0  0  0
M  CHG  1   1   1
M  END
