 xtb: 6.6.1 (8d0f1dd)
          06052419593D

 25 26  0     0  0            999 V2000
    3.4745    1.0367   -0.0268 C   0  0  0  0  0  0  0  0  0  0  0  0
    2.4171    0.0632   -0.0486 N   0  0  0  0  0  0  0  0  0  0  0  0
    2.5630   -1.2740   -0.1025 C   0  0  0  0  0  0  0  0  0  0  0  0
    1.3371   -1.8462   -0.0759 N   0  0  0  0  0  0  0  0  0  0  0  0
    0.3773   -0.8601    0.0005 C   0  0  0  0  0  0  0  0  0  0  0  0
    1.0678    0.3429    0.0215 C   0  0  0  0  0  0  0  0  0  0  0  0
   -0.6304    1.9586    0.1713 C   0  0  0  0  0  0  0  0  0  0  0  0
    0.6606    1.6011    0.0880 O   0  0  0  0  0  0  0  0  0  0  0  0
   -1.7586    1.2207   -0.0143 N   0  0  0  0  0  0  0  0  0  0  0  0
   -2.9061    1.9281   -0.2016 C   0  0  0  0  0  0  0  0  0  0  0  0
   -1.9996   -0.1941    0.1079 C   0  0  0  0  0  0  0  0  0  0  0  0
   -3.1463   -0.5787    0.2133 O   0  0  0  0  0  0  0  0  0  0  0  0
   -0.9667   -1.1161    0.0597 N   0  0  0  0  0  0  0  0  0  0  0  0
   -1.3564   -2.5196    0.1083 C   0  0  0  0  0  0  0  0  0  0  0  0
    3.8763    1.1439    0.9831 H   0  0  0  0  0  0  0  0  0  0  0  0
    4.2752    0.7239   -0.6947 H   0  0  0  0  0  0  0  0  0  0  0  0
    3.0820    1.9980   -0.3523 H   0  0  0  0  0  0  0  0  0  0  0  0
    3.4926   -1.7973   -0.1625 H   0  0  0  0  0  0  0  0  0  0  0  0
   -0.7467    3.0238    0.2027 H   0  0  0  0  0  0  0  0  0  0  0  0
   -2.8596    2.9949   -0.2719 H   0  0  0  0  0  0  0  0  0  0  0  0
   -3.8385    1.4029   -0.2324 H   0  0  0  0  0  0  0  0  0  0  0  0
   -0.9243   -3.0046    0.9845 H   0  0  0  0  0  0  0  0  0  0  0  0
   -1.0490   -3.0295   -0.8057 H   0  0  0  0  0  0  0  0  0  0  0  0
   -2.4415   -2.5629    0.1842 H   0  0  0  0  0  0  0  0  0  0  0  0
    1.1605   -2.8375   -0.1046 H   0  0  0  0  0  0  0  0  0  0  0  0
  1  2  1  0  0  0  0
  2  3  4  0  0  0  0
  3  4  4  0  0  0  0
  4  5  1  0  0  0  0
  2  6  1  0  0  0  0
  5  6  4  0  0  0  0
  6  8  1  0  0  0  0
  7  8  1  0  0  0  0
  7  9  1  0  0  0  0
  9 10  4  0  0  0  0
  9 11  1  0  0  0  0
 11 12  2  0  0  0  0
  5 13  1  0  0  0  0
 11 13  1  0  0  0  0
 13 14  1  0  0  0  0
  1 15  1  0  0  0  0
  1 16  1  0  0  0  0
  1 17  1  0  0  0  0
  3 18  1  0  0  0  0
  7 19  1  0  0  0  0
 10 20  1  0  0  0  0
 10 21  1  0  0  0  0
 14 22  1  0  0  0  0
 14 23  1  0  0  0  0
 14 24  1  0  0  0  0
  4 25  1  0  0  0  0
M  CHG  1   1   1
M  END
