 xtb: 6.6.1 (8d0f1dd)
          06052419593D

 25 26  0     0  0            999 V2000
    3.3094    1.0577   -0.0866 C   0  0  0  0  0  0  0  0  0  0  0  0
    2.4155    0.0851   -0.0596 N   0  0  0  0  0  0  0  0  0  0  0  0
    2.5471   -1.1604    0.4486 C   0  0  0  0  0  0  0  0  0  0  0  0
    1.3743   -1.8472    0.3377 N   0  0  0  0  0  0  0  0  0  0  0  0
    0.4430   -1.0817   -0.2765 C   0  0  0  0  0  0  0  0  0  0  0  0
    1.0653    0.2261   -0.5848 C   0  0  0  0  0  0  0  0  0  0  0  0
    0.2217    1.3327    0.1219 C   0  0  0  0  0  0  0  0  0  0  0  0
    0.7244    2.2906    0.6483 O   0  0  0  0  0  0  0  0  0  0  0  0
   -1.1234    1.0914    0.0338 N   0  0  0  0  0  0  0  0  0  0  0  0
   -2.0302    2.1855    0.3641 C   0  0  0  0  0  0  0  0  0  0  0  0
   -1.7365   -0.1202   -0.2898 C   0  0  0  0  0  0  0  0  0  0  0  0
   -2.9210   -0.2197   -0.4786 O   0  0  0  0  0  0  0  0  0  0  0  0
   -0.8966   -1.2449   -0.2945 N   0  0  0  0  0  0  0  0  0  0  0  0
   -1.5078   -2.5601   -0.2420 C   0  0  0  0  0  0  0  0  0  0  0  0
    3.0436    2.0113   -0.4967 H   0  0  0  0  0  0  0  0  0  0  0  0
    4.2748    0.8968    0.3541 H   0  0  0  0  0  0  0  0  0  0  0  0
    1.0669    0.5107   -1.6466 H   0  0  0  0  0  0  0  0  0  0  0  0
    3.4447   -1.5554    0.8741 H   0  0  0  0  0  0  0  0  0  0  0  0
   -1.4942    3.1262    0.2641 H   0  0  0  0  0  0  0  0  0  0  0  0
   -2.8803    2.1503   -0.3163 H   0  0  0  0  0  0  0  0  0  0  0  0
   -2.3943    2.0845    1.3872 H   0  0  0  0  0  0  0  0  0  0  0  0
   -1.4764   -2.9644    0.7718 H   0  0  0  0  0  0  0  0  0  0  0  0
   -1.0012   -3.2351   -0.9297 H   0  0  0  0  0  0  0  0  0  0  0  0
   -2.5502   -2.4503   -0.5400 H   0  0  0  0  0  0  0  0  0  0  0  0
    1.2420   -2.7915    0.6672 H   0  0  0  0  0  0  0  0  0  0  0  0
  1  2  4  0  0  0  0
  2  3  4  0  0  0  0
  3  4  1  0  0  0  0
  4  5  4  0  0  0  0
  2  6  1  0  0  0  0
  5  6  1  0  0  0  0
  6  7  1  0  0  0  0
  7  8  2  0  0  0  0
  7  9  1  0  0  0  0
  9 10  1  0  0  0  0
  9 11  1  0  0  0  0
 11 12  2  0  0  0  0
  5 13  4  0  0  0  0
 11 13  1  0  0  0  0
 13 14  1  0  0  0  0
  1 15  1  0  0  0  0
  1 16  1  0  0  0  0
  6 17  1  0  0  0  0
  3 18  1  0  0  0  0
 10 19  1  0  0  0  0
 10 20  1  0  0  0  0
 10 21  1  0  0  0  0
 14 22  1  0  0  0  0
 14 23  1  0  0  0  0
 14 24  1  0  0  0  0
  4 25  1  0  0  0  0
M  CHG  1   1   1
M  END
