 xtb: 6.6.1 (8d0f1dd)
          04062411163D

 72 73  0     0  0            999 V2000
   -1.9655    2.9524    2.2078 N   0  0  0  0  0  0  0  0  0  0  0  0
   -1.8738    2.2355    1.1866 C   0  0  0  0  0  0  0  0  0  0  0  0
   -3.0156    1.9448    0.2473 C   0  0  0  0  0  0  0  0  0  0  0  0
   -3.4122    0.4825    0.3658 C   0  0  0  0  0  0  0  0  0  0  0  0
   -4.3491   -0.0521   -0.5232 C   0  0  0  0  0  0  0  0  0  0  0  0
   -4.7196   -1.3871   -0.4546 C   0  0  0  0  0  0  0  0  0  0  0  0
   -5.6402   -2.0145   -1.2392 O   0  0  0  0  0  0  0  0  0  0  0  0
   -6.3521   -1.2496   -2.1913 C   0  0  0  0  0  0  0  0  0  0  0  0
   -4.1087   -2.1991    0.5077 C   0  0  0  0  0  0  0  0  0  0  0  0
   -4.4467   -3.6031    0.4690 O   0  0  0  0  0  0  0  0  0  0  0  0
   -4.3581   -4.4181    1.6691 C   0  0  0  0  0  0  0  0  0  0  0  0
   -3.2084   -1.6851    1.4160 C   0  0  0  0  0  0  0  0  0  0  0  0
   -2.8667   -0.3409    1.3440 C   0  0  0  0  0  0  0  0  0  0  0  0
   -2.4777    2.2260   -1.1817 C   0  0  0  0  0  0  0  0  0  0  0  0
   -1.5126    1.1621   -1.7378 C   0  0  0  0  0  0  0  0  0  0  0  0
   -0.1793    1.1642   -1.0913 C   0  0  0  0  0  0  0  0  0  0  0  0
    0.4876    0.0756   -0.6960 N   0  0  0  0  0  0  0  0  0  0  0  0
    1.8690    0.1702   -0.2901 C   0  0  0  0  0  0  0  0  0  0  0  0
    2.8313   -0.2717   -1.4096 C   0  0  0  0  0  0  0  0  0  0  0  0
    4.2523   -0.1195   -0.9457 C   0  0  0  0  0  0  0  0  0  0  0  0
    4.9197    1.0831   -1.1005 C   0  0  0  0  0  0  0  0  0  0  0  0
    6.2186    1.2378   -0.6403 C   0  0  0  0  0  0  0  0  0  0  0  0
    6.8738    0.1904   -0.0108 C   0  0  0  0  0  0  0  0  0  0  0  0
    8.1314    0.2288    0.4744 O   0  0  0  0  0  0  0  0  0  0  0  0
    8.8815    1.4127    0.3340 C   0  0  0  0  0  0  0  0  0  0  0  0
    6.1964   -1.0474    0.1542 C   0  0  0  0  0  0  0  0  0  0  0  0
    6.9082   -2.0143    0.7726 O   0  0  0  0  0  0  0  0  0  0  0  0
    6.3301   -3.2845    0.9500 C   0  0  0  0  0  0  0  0  0  0  0  0
    4.8984   -1.1783   -0.3112 C   0  0  0  0  0  0  0  0  0  0  0  0
   -0.0850   -1.2457   -0.7757 C   0  0  0  0  0  0  0  0  0  0  0  0
   -4.2740    2.8230    0.5185 C   0  0  0  0  0  0  0  0  0  0  0  0
   -4.9028    2.4957    1.8713 C   0  0  0  0  0  0  0  0  0  0  0  0
   -3.9891    4.3199    0.4326 C   0  0  0  0  0  0  0  0  0  0  0  0
   -4.7978    0.5826   -1.2680 H   0  0  0  0  0  0  0  0  0  0  0  0
   -6.9128   -0.4434   -1.7119 H   0  0  0  0  0  0  0  0  0  0  0  0
   -7.0443   -1.9434   -2.6634 H   0  0  0  0  0  0  0  0  0  0  0  0
   -5.6807   -0.8371   -2.9485 H   0  0  0  0  0  0  0  0  0  0  0  0
   -4.8982   -4.0002    2.5083 H   0  0  0  0  0  0  0  0  0  0  0  0
   -5.3528   -3.6638    0.1067 H   0  0  0  0  0  0  0  0  0  0  0  0
   -3.3240   -4.6623    1.8672 H   0  0  0  0  0  0  0  0  0  0  0  0
   -2.7835   -2.3260    2.1717 H   0  0  0  0  0  0  0  0  0  0  0  0
   -2.1805    0.0606    2.0715 H   0  0  0  0  0  0  0  0  0  0  0  0
   -3.3226    2.3018   -1.8661 H   0  0  0  0  0  0  0  0  0  0  0  0
   -1.9719    3.1919   -1.1766 H   0  0  0  0  0  0  0  0  0  0  0  0
   -1.9782    0.1795   -1.6841 H   0  0  0  0  0  0  0  0  0  0  0  0
   -1.3673    1.4017   -2.7998 H   0  0  0  0  0  0  0  0  0  0  0  0
   -0.9330    1.7689    0.8393 H   0  0  0  0  0  0  0  0  0  0  0  0
    0.3657    2.0951   -1.0695 H   0  0  0  0  0  0  0  0  0  0  0  0
    2.0266   -0.4583    0.5912 H   0  0  0  0  0  0  0  0  0  0  0  0
    2.0961    1.2023   -0.0166 H   0  0  0  0  0  0  0  0  0  0  0  0
    2.6555    0.3502   -2.2889 H   0  0  0  0  0  0  0  0  0  0  0  0
    2.6307   -1.3105   -1.6748 H   0  0  0  0  0  0  0  0  0  0  0  0
    4.4342    1.9112   -1.5943 H   0  0  0  0  0  0  0  0  0  0  0  0
    6.7147    2.1838   -0.7820 H   0  0  0  0  0  0  0  0  0  0  0  0
    8.4127    2.2495    0.8611 H   0  0  0  0  0  0  0  0  0  0  0  0
    9.0214    1.6762   -0.7188 H   0  0  0  0  0  0  0  0  0  0  0  0
    9.8493    1.2002    0.7841 H   0  0  0  0  0  0  0  0  0  0  0  0
    7.0919   -3.8857    1.4425 H   0  0  0  0  0  0  0  0  0  0  0  0
    5.4409   -3.2365    1.5874 H   0  0  0  0  0  0  0  0  0  0  0  0
    6.0696   -3.7453   -0.0081 H   0  0  0  0  0  0  0  0  0  0  0  0
    4.3767   -2.1158   -0.1967 H   0  0  0  0  0  0  0  0  0  0  0  0
   -0.2314   -1.5544   -1.8136 H   0  0  0  0  0  0  0  0  0  0  0  0
   -1.0471   -1.2765   -0.2597 H   0  0  0  0  0  0  0  0  0  0  0  0
    0.5852   -1.9542   -0.2955 H   0  0  0  0  0  0  0  0  0  0  0  0
   -5.0033    2.5762   -0.2618 H   0  0  0  0  0  0  0  0  0  0  0  0
   -4.2113    2.7417    2.6699 H   0  0  0  0  0  0  0  0  0  0  0  0
   -5.1637    1.4421    1.9416 H   0  0  0  0  0  0  0  0  0  0  0  0
   -5.8083    3.0820    2.0030 H   0  0  0  0  0  0  0  0  0  0  0  0
   -3.2611    4.6086    1.1837 H   0  0  0  0  0  0  0  0  0  0  0  0
   -3.6253    4.6079   -0.5499 H   0  0  0  0  0  0  0  0  0  0  0  0
   -4.9083    4.8684    0.6210 H   0  0  0  0  0  0  0  0  0  0  0  0
   -1.1185    3.1013    2.7481 H   0  0  0  0  0  0  0  0  0  0  0  0
  1  2  2  0  0  0  0
  2  3  1  0  0  0  0
  3  4  1  0  0  0  0
  4  5  4  0  0  0  0
  5  6  4  0  0  0  0
  6  7  1  0  0  0  0
  7  8  1  0  0  0  0
  6  9  4  0  0  0  0
  9 10  1  0  0  0  0
 10 11  1  0  0  0  0
  9 12  4  0  0  0  0
  4 13  4  0  0  0  0
 12 13  4  0  0  0  0
  3 14  1  0  0  0  0
 14 15  1  0  0  0  0
 15 16  1  0  0  0  0
 16 17  4  0  0  0  0
 17 18  1  0  0  0  0
 18 19  1  0  0  0  0
 19 20  1  0  0  0  0
 20 21  4  0  0  0  0
 21 22  4  0  0  0  0
 22 23  4  0  0  0  0
 23 24  1  0  0  0  0
 24 25  1  0  0  0  0
 23 26  4  0  0  0  0
 26 27  1  0  0  0  0
 27 28  1  0  0  0  0
 20 29  4  0  0  0  0
 26 29  4  0  0  0  0
 17 30  1  0  0  0  0
  3 31  1  0  0  0  0
 31 32  1  0  0  0  0
 31 33  1  0  0  0  0
  5 34  1  0  0  0  0
  8 35  1  0  0  0  0
  8 36  1  0  0  0  0
  8 37  1  0  0  0  0
 11 38  1  0  0  0  0
 10 39  1  0  0  0  0
 11 40  1  0  0  0  0
 12 41  1  0  0  0  0
 13 42  1  0  0  0  0
 14 43  1  0  0  0  0
 14 44  1  0  0  0  0
 15 45  1  0  0  0  0
 15 46  1  0  0  0  0
  2 47  1  0  0  0  0
 16 48  1  0  0  0  0
 18 49  1  0  0  0  0
 18 50  1  0  0  0  0
 19 51  1  0  0  0  0
 19 52  1  0  0  0  0
 21 53  1  0  0  0  0
 22 54  1  0  0  0  0
 25 55  1  0  0  0  0
 25 56  1  0  0  0  0
 25 57  1  0  0  0  0
 28 58  1  0  0  0  0
 28 59  1  0  0  0  0
 28 60  1  0  0  0  0
 29 61  1  0  0  0  0
 30 62  1  0  0  0  0
 30 63  1  0  0  0  0
 30 64  1  0  0  0  0
 31 65  1  0  0  0  0
 32 66  1  0  0  0  0
 32 67  1  0  0  0  0
 32 68  1  0  0  0  0
 33 69  1  0  0  0  0
 33 70  1  0  0  0  0
 33 71  1  0  0  0  0
  1 72  1  0  0  0  0
M  CHG  1   1   1
M  END
