 xtb: 6.6.1 (8d0f1dd)
          04062411153D

 72 73  0     0  0            999 V2000
   -2.2132    2.7184    2.4747 N   0  0  0  0  0  0  0  0  0  0  0  0
   -2.0920    2.1272    1.3782 C   0  0  0  0  0  0  0  0  0  0  0  0
   -3.2083    1.9456    0.3937 C   0  0  0  0  0  0  0  0  0  0  0  0
   -4.0140    0.6415    0.7760 C   0  0  0  0  0  0  0  0  0  0  0  0
   -4.7523    0.1095   -0.3712 C   0  0  0  0  0  0  0  0  0  0  0  0
   -4.8426   -1.2075   -0.6734 C   0  0  0  0  0  0  0  0  0  0  0  0
   -5.5053   -1.7102   -1.7426 O   0  0  0  0  0  0  0  0  0  0  0  0
   -6.1842   -0.7667   -2.5386 C   0  0  0  0  0  0  0  0  0  0  0  0
   -4.2114   -2.1893    0.1734 C   0  0  0  0  0  0  0  0  0  0  0  0
   -4.4336   -3.4673   -0.1422 O   0  0  0  0  0  0  0  0  0  0  0  0
   -3.9777   -4.4951    0.7105 C   0  0  0  0  0  0  0  0  0  0  0  0
   -3.4128   -1.7341    1.2408 C   0  0  0  0  0  0  0  0  0  0  0  0
   -3.2508   -0.4091    1.5066 C   0  0  0  0  0  0  0  0  0  0  0  0
   -2.6119    1.7646   -1.0203 C   0  0  0  0  0  0  0  0  0  0  0  0
   -1.7136    0.5377   -1.2110 C   0  0  0  0  0  0  0  0  0  0  0  0
   -0.3384    0.7314   -0.6994 C   0  0  0  0  0  0  0  0  0  0  0  0
    0.4462   -0.2547   -0.2759 N   0  0  0  0  0  0  0  0  0  0  0  0
    1.8462   -0.0189   -0.0161 C   0  0  0  0  0  0  0  0  0  0  0  0
    2.7167   -0.3448   -1.2457 C   0  0  0  0  0  0  0  0  0  0  0  0
    4.1643   -0.1271   -0.9091 C   0  0  0  0  0  0  0  0  0  0  0  0
    4.7690    1.0990   -1.1281 C   0  0  0  0  0  0  0  0  0  0  0  0
    6.0915    1.3107   -0.7698 C   0  0  0  0  0  0  0  0  0  0  0  0
    6.8341    0.2993   -0.1779 C   0  0  0  0  0  0  0  0  0  0  0  0
    8.1167    0.3960    0.2192 O   0  0  0  0  0  0  0  0  0  0  0  0
    8.7988    1.6166    0.0451 C   0  0  0  0  0  0  0  0  0  0  0  0
    6.2230   -0.9654    0.0454 C   0  0  0  0  0  0  0  0  0  0  0  0
    7.0160   -1.8952    0.6157 O   0  0  0  0  0  0  0  0  0  0  0  0
    6.5026   -3.1840    0.8525 C   0  0  0  0  0  0  0  0  0  0  0  0
    4.9000   -1.1528   -0.3197 C   0  0  0  0  0  0  0  0  0  0  0  0
   -0.0256   -1.6168   -0.2118 C   0  0  0  0  0  0  0  0  0  0  0  0
   -4.1931    3.1543    0.3552 C   0  0  0  0  0  0  0  0  0  0  0  0
   -4.9734    3.3720    1.6523 C   0  0  0  0  0  0  0  0  0  0  0  0
   -3.4791    4.4633    0.0102 C   0  0  0  0  0  0  0  0  0  0  0  0
   -4.7536    1.0028    1.5087 H   0  0  0  0  0  0  0  0  0  0  0  0
   -6.9709   -0.2676   -1.9661 H   0  0  0  0  0  0  0  0  0  0  0  0
   -6.6198   -1.3226   -3.3656 H   0  0  0  0  0  0  0  0  0  0  0  0
   -5.4919   -0.0084   -2.9182 H   0  0  0  0  0  0  0  0  0  0  0  0
   -4.3571   -4.3661    1.7281 H   0  0  0  0  0  0  0  0  0  0  0  0
   -4.3719   -5.4188    0.2918 H   0  0  0  0  0  0  0  0  0  0  0  0
   -2.8844   -4.5453    0.7298 H   0  0  0  0  0  0  0  0  0  0  0  0
   -2.9112   -2.4614    1.8634 H   0  0  0  0  0  0  0  0  0  0  0  0
   -2.6367   -0.0939    2.3363 H   0  0  0  0  0  0  0  0  0  0  0  0
   -3.4517    1.6811   -1.7112 H   0  0  0  0  0  0  0  0  0  0  0  0
   -2.0407    2.6543   -1.2851 H   0  0  0  0  0  0  0  0  0  0  0  0
   -2.1850   -0.3389   -0.7702 H   0  0  0  0  0  0  0  0  0  0  0  0
   -1.6437    0.3516   -2.2920 H   0  0  0  0  0  0  0  0  0  0  0  0
   -1.1466    1.6581    1.0360 H   0  0  0  0  0  0  0  0  0  0  0  0
    0.1298    1.6950   -0.8332 H   0  0  0  0  0  0  0  0  0  0  0  0
    2.1620   -0.6382    0.8271 H   0  0  0  0  0  0  0  0  0  0  0  0
    1.9939    1.0281    0.2566 H   0  0  0  0  0  0  0  0  0  0  0  0
    2.4187    0.3034   -2.0711 H   0  0  0  0  0  0  0  0  0  0  0  0
    2.5512   -1.3812   -1.5435 H   0  0  0  0  0  0  0  0  0  0  0  0
    4.2144    1.9008   -1.5914 H   0  0  0  0  0  0  0  0  0  0  0  0
    6.5375    2.2731   -0.9594 H   0  0  0  0  0  0  0  0  0  0  0  0
    8.3109    2.4292    0.5920 H   0  0  0  0  0  0  0  0  0  0  0  0
    8.8784    1.8837   -1.0129 H   0  0  0  0  0  0  0  0  0  0  0  0
    9.7949    1.4547    0.4523 H   0  0  0  0  0  0  0  0  0  0  0  0
    7.3208   -3.7478    1.2961 H   0  0  0  0  0  0  0  0  0  0  0  0
    5.6610   -3.1586    1.5525 H   0  0  0  0  0  0  0  0  0  0  0  0
    6.1915   -3.6696   -0.0778 H   0  0  0  0  0  0  0  0  0  0  0  0
    4.4276   -2.1095   -0.1600 H   0  0  0  0  0  0  0  0  0  0  0  0
   -0.3542   -1.9660   -1.1930 H   0  0  0  0  0  0  0  0  0  0  0  0
   -0.8656   -1.6949    0.4821 H   0  0  0  0  0  0  0  0  0  0  0  0
    0.7768   -2.2608    0.1384 H   0  0  0  0  0  0  0  0  0  0  0  0
   -4.9123    2.9308   -0.4411 H   0  0  0  0  0  0  0  0  0  0  0  0
   -4.2920    3.4446    2.4940 H   0  0  0  0  0  0  0  0  0  0  0  0
   -5.7001    2.5843    1.8420 H   0  0  0  0  0  0  0  0  0  0  0  0
   -5.5325    4.3011    1.5774 H   0  0  0  0  0  0  0  0  0  0  0  0
   -2.7189    4.6870    0.7539 H   0  0  0  0  0  0  0  0  0  0  0  0
   -3.0206    4.4416   -0.9740 H   0  0  0  0  0  0  0  0  0  0  0  0
   -4.1995    5.2767    0.0121 H   0  0  0  0  0  0  0  0  0  0  0  0
   -1.3936    2.7837    3.0698 H   0  0  0  0  0  0  0  0  0  0  0  0
  1  2  2  0  0  0  0
  2  3  1  0  0  0  0
  3  4  1  0  0  0  0
  4  5  1  0  0  0  0
  5  6  2  0  0  0  0
  6  7  1  0  0  0  0
  7  8  1  0  0  0  0
  6  9  1  0  0  0  0
  9 10  1  0  0  0  0
 10 11  1  0  0  0  0
  9 12  4  0  0  0  0
  4 13  1  0  0  0  0
 12 13  2  0  0  0  0
  3 14  1  0  0  0  0
 14 15  1  0  0  0  0
 15 16  1  0  0  0  0
 16 17  4  0  0  0  0
 17 18  1  0  0  0  0
 18 19  1  0  0  0  0
 19 20  1  0  0  0  0
 20 21  4  0  0  0  0
 21 22  4  0  0  0  0
 22 23  4  0  0  0  0
 23 24  1  0  0  0  0
 24 25  1  0  0  0  0
 23 26  4  0  0  0  0
 26 27  1  0  0  0  0
 27 28  1  0  0  0  0
 20 29  4  0  0  0  0
 26 29  4  0  0  0  0
 17 30  1  0  0  0  0
  3 31  1  0  0  0  0
 31 32  1  0  0  0  0
 31 33  1  0  0  0  0
  4 34  1  0  0  0  0
  8 35  1  0  0  0  0
  8 36  1  0  0  0  0
  8 37  1  0  0  0  0
 11 38  1  0  0  0  0
 11 39  1  0  0  0  0
 11 40  1  0  0  0  0
 12 41  1  0  0  0  0
 13 42  1  0  0  0  0
 14 43  1  0  0  0  0
 14 44  1  0  0  0  0
 15 45  1  0  0  0  0
 15 46  1  0  0  0  0
  2 47  1  0  0  0  0
 16 48  1  0  0  0  0
 18 49  1  0  0  0  0
 18 50  1  0  0  0  0
 19 51  1  0  0  0  0
 19 52  1  0  0  0  0
 21 53  1  0  0  0  0
 22 54  1  0  0  0  0
 25 55  1  0  0  0  0
 25 56  1  0  0  0  0
 25 57  1  0  0  0  0
 28 58  1  0  0  0  0
 28 59  1  0  0  0  0
 28 60  1  0  0  0  0
 29 61  1  0  0  0  0
 30 62  1  0  0  0  0
 30 63  1  0  0  0  0
 30 64  1  0  0  0  0
 31 65  1  0  0  0  0
 32 66  1  0  0  0  0
 32 67  1  0  0  0  0
 32 68  1  0  0  0  0
 33 69  1  0  0  0  0
 33 70  1  0  0  0  0
 33 71  1  0  0  0  0
  1 72  1  0  0  0  0
M  CHG  1   1   1
M  END
