          24
 
C              3.22948963        1.12324981        0.02499955
N              2.27349545        0.04812940        0.00792952
C              2.53880716       -1.25024552        0.00221899
N              1.38906570       -1.95539012        0.00432591
C              0.35082613       -1.07182697        0.01215425
C              0.90409965        0.20293807        0.01639055
C              0.10371033        1.39232581        0.00339026
O              0.48819845        2.54038647       -0.01491562
N             -1.29582434        1.07791612        0.01111618
C             -2.15260272        2.10998873        0.02141574
C             -1.86316190       -0.23170802        0.01099701
O             -3.05090579       -0.39253623        0.00671963
N             -0.97560049       -1.30501351        0.01051953
C             -1.51159701       -2.65394863        0.00790426
H              3.70086572        1.19432562        1.00629538
H              4.00061229        0.95471927       -0.72510402
H              2.70923978        2.05815892       -0.18102340
H              3.52000554       -1.68326731       -0.00564803
H             -1.74133134        3.10178097        0.04503667
H             -3.20702822        1.90695175        0.01293809
H             -1.22535312       -3.17935735        0.91928781
H             -1.16286012       -3.19837927       -0.86936045
H             -2.59747802       -2.57782100       -0.02991934
H              1.32149560       -2.96368115        0.00202045
