 xtb: 6.6.1 (8d0f1dd)
          06052419583D

 25 26  0     0  0            999 V2000
    3.7170    0.6626    0.0112 C   0  0  0  0  0  0  0  0  0  0  0  0
    2.5760   -0.2122    0.0068 N   0  0  0  0  0  0  0  0  0  0  0  0
    2.5781   -1.5332    0.0127 C   0  0  0  0  0  0  0  0  0  0  0  0
    1.3097   -1.9934    0.0148 N   0  0  0  0  0  0  0  0  0  0  0  0
    0.4754   -0.9131    0.0099 C   0  0  0  0  0  0  0  0  0  0  0  0
    1.2760    0.2148    0.0050 C   0  0  0  0  0  0  0  0  0  0  0  0
    0.6673    1.5665   -0.0173 C   0  0  0  0  0  0  0  0  0  0  0  0
    1.2943    2.5917   -0.0376 O   0  0  0  0  0  0  0  0  0  0  0  0
   -0.7005    1.4928   -0.0161 N   0  0  0  0  0  0  0  0  0  0  0  0
   -3.4088    1.6828   -0.0213 C   0  0  0  0  0  0  0  0  0  0  0  0
   -1.4073    0.4251   -0.0037 C   0  0  0  0  0  0  0  0  0  0  0  0
   -2.7126    0.4347   -0.0010 O   0  0  0  0  0  0  0  0  0  0  0  0
   -0.8762   -0.8713    0.0081 N   0  0  0  0  0  0  0  0  0  0  0  0
   -1.6824   -2.0767    0.0137 C   0  0  0  0  0  0  0  0  0  0  0  0
    4.2534    0.5765    0.9557 H   0  0  0  0  0  0  0  0  0  0  0  0
    4.3911    0.4088   -0.8044 H   0  0  0  0  0  0  0  0  0  0  0  0
    3.3655    1.6861   -0.1055 H   0  0  0  0  0  0  0  0  0  0  0  0
    3.4517   -2.1551    0.0148 H   0  0  0  0  0  0  0  0  0  0  0  0
   -2.7063    2.5103    0.0025 H   0  0  0  0  0  0  0  0  0  0  0  0
   -4.0028    1.7129   -0.9307 H   0  0  0  0  0  0  0  0  0  0  0  0
   -4.0524    1.7041    0.8498 H   0  0  0  0  0  0  0  0  0  0  0  0
   -1.4742   -2.6662    0.9079 H   0  0  0  0  0  0  0  0  0  0  0  0
   -1.4816   -2.6703   -0.8794 H   0  0  0  0  0  0  0  0  0  0  0  0
   -2.7309   -1.7930    0.0175 H   0  0  0  0  0  0  0  0  0  0  0  0
    1.0411   -2.9670    0.0177 H   0  0  0  0  0  0  0  0  0  0  0  0
  1  2  1  0  0  0  0
  2  3  4  0  0  0  0
  3  4  4  0  0  0  0
  4  5  1  0  0  0  0
  2  6  1  0  0  0  0
  5  6  4  0  0  0  0
  6  7  1  0  0  0  0
  7  8  2  0  0  0  0
  7  9  1  0  0  0  0
  9 11  2  0  0  0  0
 10 12  1  0  0  0  0
 11 12  4  0  0  0  0
  5 13  1  0  0  0  0
 11 13  1  0  0  0  0
 13 14  1  0  0  0  0
  1 15  1  0  0  0  0
  1 16  1  0  0  0  0
  1 17  1  0  0  0  0
  3 18  1  0  0  0  0
 10 19  1  0  0  0  0
 10 20  1  0  0  0  0
 10 21  1  0  0  0  0
 14 22  1  0  0  0  0
 14 23  1  0  0  0  0
 14 24  1  0  0  0  0
  4 25  1  0  0  0  0
M  CHG  1   1   1
M  END
