 xtb: 6.6.1 (8d0f1dd)
          04062411123D

 72 72  0     0  0            999 V2000
   -1.9359    2.8971    2.1943 N   0  0  0  0  0  0  0  0  0  0  0  0
   -1.8867    2.1339    1.2077 C   0  0  0  0  0  0  0  0  0  0  0  0
   -3.0323    1.8729    0.2701 C   0  0  0  0  0  0  0  0  0  0  0  0
   -3.4612    0.4186    0.3754 C   0  0  0  0  0  0  0  0  0  0  0  0
   -4.3412   -0.1021   -0.5647 C   0  0  0  0  0  0  0  0  0  0  0  0
   -4.8077   -1.4096   -0.4741 C   0  0  0  0  0  0  0  0  0  0  0  0
   -5.6900   -1.9778   -1.3326 O   0  0  0  0  0  0  0  0  0  0  0  0
   -6.2165   -1.3957   -2.3719 C   0  0  0  0  0  0  0  0  0  0  0  0
   -4.3745   -2.2475    0.5899 C   0  0  0  0  0  0  0  0  0  0  0  0
   -4.8721   -3.4972    0.5928 O   0  0  0  0  0  0  0  0  0  0  0  0
   -4.5298   -4.3722    1.6456 C   0  0  0  0  0  0  0  0  0  0  0  0
   -3.4905   -1.7178    1.5197 C   0  0  0  0  0  0  0  0  0  0  0  0
   -3.0472   -0.4056    1.4172 C   0  0  0  0  0  0  0  0  0  0  0  0
   -2.4999    2.1762   -1.1533 C   0  0  0  0  0  0  0  0  0  0  0  0
   -1.5299    1.1234   -1.7171 C   0  0  0  0  0  0  0  0  0  0  0  0
   -0.1975    1.1272   -1.0785 C   0  0  0  0  0  0  0  0  0  0  0  0
    0.4771    0.0510   -0.7003 N   0  0  0  0  0  0  0  0  0  0  0  0
    1.8588    0.1508   -0.2913 C   0  0  0  0  0  0  0  0  0  0  0  0
    2.8185   -0.2902   -1.4134 C   0  0  0  0  0  0  0  0  0  0  0  0
    4.2422   -0.1092   -0.9667 C   0  0  0  0  0  0  0  0  0  0  0  0
    4.8929    1.0992   -1.1577 C   0  0  0  0  0  0  0  0  0  0  0  0
    6.1956    1.2806   -0.7208 C   0  0  0  0  0  0  0  0  0  0  0  0
    6.8745    0.2552   -0.0775 C   0  0  0  0  0  0  0  0  0  0  0  0
    8.1355    0.3187    0.3859 O   0  0  0  0  0  0  0  0  0  0  0  0
    8.8767    1.5036    0.2046 C   0  0  0  0  0  0  0  0  0  0  0  0
    6.2138   -0.9886    0.1254 C   0  0  0  0  0  0  0  0  0  0  0  0
    6.9450   -1.9301    0.7532 O   0  0  0  0  0  0  0  0  0  0  0  0
    6.3893   -3.2051    0.9699 C   0  0  0  0  0  0  0  0  0  0  0  0
    4.9101   -1.1454   -0.3189 C   0  0  0  0  0  0  0  0  0  0  0  0
   -0.1008   -1.2709   -0.7560 C   0  0  0  0  0  0  0  0  0  0  0  0
   -4.2836    2.7579    0.5566 C   0  0  0  0  0  0  0  0  0  0  0  0
   -4.8903    2.4487    1.9230 C   0  0  0  0  0  0  0  0  0  0  0  0
   -4.0002    4.2528    0.4459 C   0  0  0  0  0  0  0  0  0  0  0  0
   -4.6745    0.5269   -1.3837 H   0  0  0  0  0  0  0  0  0  0  0  0
   -4.9413    1.5269   -2.8729 H   0  0  0  0  0  0  0  0  0  0  0  0
   -6.9145   -2.0048   -2.9173 H   0  0  0  0  0  0  0  0  0  0  0  0
   -5.9839   -0.3848   -2.6871 H   0  0  0  0  0  0  0  0  0  0  0  0
   -4.8335   -3.9689    2.6152 H   0  0  0  0  0  0  0  0  0  0  0  0
   -5.0775   -5.2916    1.4491 H   0  0  0  0  0  0  0  0  0  0  0  0
   -3.4565   -4.5844    1.6546 H   0  0  0  0  0  0  0  0  0  0  0  0
   -3.1515   -2.3184    2.3481 H   0  0  0  0  0  0  0  0  0  0  0  0
   -2.3899   -0.0225    2.1826 H   0  0  0  0  0  0  0  0  0  0  0  0
   -3.3522    2.2336   -1.8375 H   0  0  0  0  0  0  0  0  0  0  0  0
   -2.0099    3.1501   -1.1471 H   0  0  0  0  0  0  0  0  0  0  0  0
   -1.9950    0.1403   -1.6818 H   0  0  0  0  0  0  0  0  0  0  0  0
   -1.3827    1.3809   -2.7740 H   0  0  0  0  0  0  0  0  0  0  0  0
   -0.9695    1.6016    0.8874 H   0  0  0  0  0  0  0  0  0  0  0  0
    0.3309    2.0686   -1.0334 H   0  0  0  0  0  0  0  0  0  0  0  0
    2.0187   -0.4752    0.5909 H   0  0  0  0  0  0  0  0  0  0  0  0
    2.0831    1.1847   -0.0215 H   0  0  0  0  0  0  0  0  0  0  0  0
    2.6255    0.3179   -2.2987 H   0  0  0  0  0  0  0  0  0  0  0  0
    2.6334   -1.3352   -1.6647 H   0  0  0  0  0  0  0  0  0  0  0  0
    4.3902    1.9095   -1.6634 H   0  0  0  0  0  0  0  0  0  0  0  0
    6.6780    2.2290   -0.8909 H   0  0  0  0  0  0  0  0  0  0  0  0
    8.4127    2.3492    0.7212 H   0  0  0  0  0  0  0  0  0  0  0  0
    8.9951    1.7430   -0.8563 H   0  0  0  0  0  0  0  0  0  0  0  0
    9.8537    1.3063    0.6413 H   0  0  0  0  0  0  0  0  0  0  0  0
    7.1668   -3.7822    1.4665 H   0  0  0  0  0  0  0  0  0  0  0  0
    5.5084   -3.1542    1.6180 H   0  0  0  0  0  0  0  0  0  0  0  0
    6.1237   -3.6926    0.0268 H   0  0  0  0  0  0  0  0  0  0  0  0
    4.4034   -2.0873   -0.1773 H   0  0  0  0  0  0  0  0  0  0  0  0
   -0.2680   -1.5860   -1.7880 H   0  0  0  0  0  0  0  0  0  0  0  0
   -1.0545   -1.2916   -0.2233 H   0  0  0  0  0  0  0  0  0  0  0  0
    0.5756   -1.9781   -0.2827 H   0  0  0  0  0  0  0  0  0  0  0  0
   -5.0218    2.4981   -0.2100 H   0  0  0  0  0  0  0  0  0  0  0  0
   -4.1956    2.7242    2.7105 H   0  0  0  0  0  0  0  0  0  0  0  0
   -5.1343    1.3933    2.0193 H   0  0  0  0  0  0  0  0  0  0  0  0
   -5.8042    3.0221    2.0520 H   0  0  0  0  0  0  0  0  0  0  0  0
   -3.2333    4.5481    1.1558 H   0  0  0  0  0  0  0  0  0  0  0  0
   -3.6919    4.5322   -0.5576 H   0  0  0  0  0  0  0  0  0  0  0  0
   -4.9080    4.8034    0.6780 H   0  0  0  0  0  0  0  0  0  0  0  0
   -1.0908    3.0291    2.7409 H   0  0  0  0  0  0  0  0  0  0  0  0
  1  2  2  0  0  0  0
  2  3  1  0  0  0  0
  3  4  1  0  0  0  0
  4  5  4  0  0  0  0
  5  6  4  0  0  0  0
  6  7  1  0  0  0  0
  7  8  4  0  0  0  0
  6  9  4  0  0  0  0
  9 10  1  0  0  0  0
 10 11  1  0  0  0  0
  9 12  4  0  0  0  0
  4 13  4  0  0  0  0
 12 13  4  0  0  0  0
  3 14  1  0  0  0  0
 14 15  1  0  0  0  0
 15 16  1  0  0  0  0
 16 17  4  0  0  0  0
 17 18  1  0  0  0  0
 18 19  1  0  0  0  0
 19 20  1  0  0  0  0
 20 21  4  0  0  0  0
 21 22  4  0  0  0  0
 22 23  4  0  0  0  0
 23 24  1  0  0  0  0
 24 25  1  0  0  0  0
 23 26  4  0  0  0  0
 26 27  1  0  0  0  0
 27 28  1  0  0  0  0
 20 29  4  0  0  0  0
 26 29  4  0  0  0  0
 17 30  1  0  0  0  0
  3 31  1  0  0  0  0
 31 32  1  0  0  0  0
 31 33  1  0  0  0  0
  5 34  1  0  0  0  0
  8 36  1  0  0  0  0
  8 37  1  0  0  0  0
 11 38  1  0  0  0  0
 11 39  1  0  0  0  0
 11 40  1  0  0  0  0
 12 41  1  0  0  0  0
 13 42  1  0  0  0  0
 14 43  1  0  0  0  0
 14 44  1  0  0  0  0
 15 45  1  0  0  0  0
 15 46  1  0  0  0  0
  2 47  1  0  0  0  0
 16 48  1  0  0  0  0
 18 49  1  0  0  0  0
 18 50  1  0  0  0  0
 19 51  1  0  0  0  0
 19 52  1  0  0  0  0
 21 53  1  0  0  0  0
 22 54  1  0  0  0  0
 25 55  1  0  0  0  0
 25 56  1  0  0  0  0
 25 57  1  0  0  0  0
 28 58  1  0  0  0  0
 28 59  1  0  0  0  0
 28 60  1  0  0  0  0
 29 61  1  0  0  0  0
 30 62  1  0  0  0  0
 30 63  1  0  0  0  0
 30 64  1  0  0  0  0
 31 65  1  0  0  0  0
 32 66  1  0  0  0  0
 32 67  1  0  0  0  0
 32 68  1  0  0  0  0
 33 69  1  0  0  0  0
 33 70  1  0  0  0  0
 33 71  1  0  0  0  0
  1 72  1  0  0  0  0
M  CHG  1   1   1
M  END
