          71
 
N             -1.42558275        2.45207278        2.47084256
C             -2.16152653        2.25426171        1.61749533
C             -3.09155908        2.07350363        0.52130157
C             -3.62681672        0.65302300        0.49696848
C             -4.51746004        0.27425418       -0.50673685
C             -5.01867346       -1.01673483       -0.57362434
O             -5.88970092       -1.46722628       -1.49435084
C             -6.42736510       -0.57246011       -2.44072866
C             -4.60278481       -1.98120873        0.38938073
O             -5.12118044       -3.21083377        0.23555650
C             -4.78379233       -4.22307119        1.15632949
C             -3.72193179       -1.58958045        1.38811844
C             -3.24571005       -0.28869106        1.44380507
C             -2.32671576        2.39144051       -0.79310251
C             -1.43624333        1.25691121       -1.30237716
C             -0.28800701        0.93000337       -0.34279914
N              0.61636496       -0.04936072       -0.89121032
C              1.98051118       -0.02336104       -0.42778616
C              2.96348382       -0.32476718       -1.57803722
C              4.37980746       -0.22910837       -1.09586825
C              5.07762560        0.97035624       -1.17805005
C              6.37835407        1.07269451       -0.71544371
C              7.01633579       -0.02646432       -0.15176682
O              8.26817455       -0.04789438        0.32752460
C              9.05878503        1.11767218        0.26159974
C              6.30887105       -1.26244185       -0.05891567
O              7.00307458       -2.27259769        0.48992746
C              6.40586228       -3.54196879        0.61727285
C              5.00485266       -1.33615995       -0.52830891
C              0.04180087       -1.35901911       -1.07171835
C             -4.26784281        3.07628954        0.74570545
C             -5.01577776        2.73114523        2.03263713
C             -3.78902829        4.52514887        0.79367594
H             -4.82364795        0.99681931       -1.24545976
H             -6.95406742        0.25440910       -1.95496512
H             -7.13581321       -1.15686625       -3.02457935
H             -5.65294990       -0.17601757       -3.10481231
H             -5.09584635       -3.96100327        2.17144053
H             -5.32550960       -5.10828394        0.82911039
H             -3.70937014       -4.43057321        1.14619683
H             -3.40376138       -2.29289334        2.14027781
H             -2.57874571       -0.01261892        2.24638009
H             -3.05939206        2.62804543       -1.56668613
H             -1.71318671        3.27982604       -0.63300507
H             -2.04189563        0.36595479       -1.47085099
H             -1.00818367        1.55983358       -2.25989624
H             -0.70692374        0.56756894        0.60851745
H              0.26937783        1.84503564       -0.13565902
H              2.14322098       -0.75058350        0.38156520
H              2.20524535        0.96924159       -0.03359746
H              2.78823862        0.39746377       -2.37557136
H              2.77115100       -1.32302039       -1.97218024
H              4.60438382        1.83493527       -1.61718420
H              6.89437499        2.01506548       -0.79997539
H              8.61145929        1.93706482        0.83173872
H              9.21551828        1.43437940       -0.77366200
H             10.01472329        0.84747387        0.70623414
H              7.16960613       -4.18093505        1.05647029
H              5.53584221       -3.50895679        1.28007766
H              6.11133062       -3.94591515       -0.35589279
H              4.46337108       -2.26713515       -0.46573491
H             -0.59403334       -1.37177272       -1.95761795
H             -0.56811551       -1.65154762       -0.20714652
H              0.82646441       -2.09787371       -1.20849850
H             -4.95718896        2.96601331       -0.09799191
H             -4.35564443        2.81870786        2.89334614
H             -5.40939631        1.71713510        2.00061798
H             -5.84826185        3.41623344        2.17186782
H             -3.04426940        4.66044177        1.57511802
H             -3.36360435        4.84161489       -0.15519000
H             -4.63151106        5.17634667        1.01416787
