          68
 
N             -1.65935334        2.88162983        2.51726175
C             -1.68144928        2.15801235        1.50093373
C             -2.85043754        2.03552587        0.56443699
C             -3.32797427        0.59075787        0.53179802
C             -4.15434234        0.15869865       -0.48146141
C             -4.66598087       -1.17433048       -0.56363551
O             -5.38755304       -1.55079841       -1.50011094
C             -4.28152650       -2.07156428        0.53010116
O             -4.79871567       -3.30110275        0.43305732
C             -4.55129206       -4.25127763        1.44414451
C             -3.45651947       -1.61178445        1.54212164
C             -2.97961341       -0.30744009        1.54726801
C             -2.31888788        2.46985728       -0.82701892
C             -1.43571998        1.42934551       -1.53945877
C             -0.10355104        1.25055151       -0.92620032
N              0.48247378        0.08892300       -0.68775261
C              1.86728835        0.03096334       -0.28104200
C              2.78771025       -0.37986331       -1.44730075
C              4.22628448       -0.27968979       -1.02207856
C              4.91563797        0.91543431       -1.15611042
C              6.23243383        1.02717919       -0.73910791
C              6.88798434       -0.05694735       -0.17216667
O              8.15775408       -0.06302876        0.26930927
C              8.93124794        1.11019442        0.16118063
C              6.18910238       -1.28902004       -0.03108394
O              6.90144319       -2.28892603        0.52163605
C              6.31102682       -3.55763147        0.67601465
C              4.87145859       -1.37552191       -0.45446017
C             -0.19949556       -1.16809174       -0.89100572
C             -4.06734275        2.92373776        0.96137178
C             -4.64344684        2.51363828        2.31436280
C             -3.74857656        4.41606133        0.97000781
H             -4.47230073        0.82348029       -1.26911476
H             -4.93660767       -3.91196353        2.40989778
H             -5.08099087       -5.15063005        1.13750559
H             -3.48282945       -4.47025931        1.53276759
H             -3.18469952       -2.26705492        2.35546356
H             -2.36040958        0.01594912        2.36973199
H             -3.17135527        2.67808540       -1.47253372
H             -1.75699995        3.39779134       -0.71121719
H             -1.97507547        0.48778535       -1.62132415
H             -1.27189044        1.80895974       -2.55640760
H             -0.81573065        1.56541732        1.15025540
H              0.49512239        2.13628497       -0.76823628
H              1.97261324       -0.68637329        0.53739637
H              2.17806582        1.01268795        0.08215643
H              2.60433144        0.28956384       -2.28950849
H              2.55658373       -1.39874030       -1.75925288
H              4.43151356        1.77096459       -1.60204434
H              6.74442870        1.96689888       -0.86505717
H              8.49168540        1.93351246        0.73228644
H              9.05449295        1.41351689       -0.88267571
H              9.90317912        0.85853897        0.58100598
H              7.07993636       -4.18465653        1.12312562
H              5.44416075       -3.51855805        1.34331628
H              6.01381764       -3.98162736       -0.28803709
H              4.33626728       -2.30723335       -0.35820657
H             -0.42012158       -1.33200940       -1.94720976
H             -1.13752805       -1.18768113       -0.33147229
H              0.43140865       -1.97939021       -0.53866277
H             -4.83565123        2.74019290        0.20109949
H             -3.91507873        2.68855923        3.10034805
H             -4.92771660        1.46415391        2.31934653
H             -5.52918120        3.10626251        2.52694486
H             -2.95664580        4.62738192        1.68225106
H             -3.45505438        4.77596604       -0.01234727
H             -4.63500219        4.96666565        1.27389006
H             -0.80477008        2.91806303        3.06339916
