 xtb: 6.6.1 (8d0f1dd)
          04062411123D

 72 72  0     0  0            999 V2000
   -1.9331    2.7645    2.2744 N   0  0  0  0  0  0  0  0  0  0  0  0
   -1.8916    2.0551    1.2484 C   0  0  0  0  0  0  0  0  0  0  0  0
   -3.0236    1.8981    0.2692 C   0  0  0  0  0  0  0  0  0  0  0  0
   -3.5414    0.4691    0.3105 C   0  0  0  0  0  0  0  0  0  0  0  0
   -4.4753    0.0390   -0.6335 C   0  0  0  0  0  0  0  0  0  0  0  0
   -4.9976   -1.2449   -0.6055 C   0  0  0  0  0  0  0  0  0  0  0  0
   -5.8993   -1.7411   -1.4728 O   0  0  0  0  0  0  0  0  0  0  0  0
   -6.4103   -0.9123   -2.4925 C   0  0  0  0  0  0  0  0  0  0  0  0
   -4.5553   -2.1477    0.4001 C   0  0  0  0  0  0  0  0  0  0  0  0
   -5.1372   -3.3718    0.3716 O   0  0  0  0  0  0  0  0  0  0  0  0
   -4.8409   -4.3581    1.1686 C   0  0  0  0  0  0  0  0  0  0  0  0
   -3.6060   -1.7221    1.3256 C   0  0  0  0  0  0  0  0  0  0  0  0
   -3.1145   -0.4314    1.2812 C   0  0  0  0  0  0  0  0  0  0  0  0
   -2.4192    2.1957   -1.1279 C   0  0  0  0  0  0  0  0  0  0  0  0
   -1.4823    1.0958   -1.6577 C   0  0  0  0  0  0  0  0  0  0  0  0
   -0.1631    1.0637   -0.9852 C   0  0  0  0  0  0  0  0  0  0  0  0
    0.4949   -0.0336   -0.6331 N   0  0  0  0  0  0  0  0  0  0  0  0
    1.8757    0.0435   -0.2167 C   0  0  0  0  0  0  0  0  0  0  0  0
    2.8346   -0.3453   -1.3591 C   0  0  0  0  0  0  0  0  0  0  0  0
    4.2600   -0.1435   -0.9263 C   0  0  0  0  0  0  0  0  0  0  0  0
    4.8976    1.0679   -1.1413 C   0  0  0  0  0  0  0  0  0  0  0  0
    6.2040    1.2675   -0.7228 C   0  0  0  0  0  0  0  0  0  0  0  0
    6.8992    0.2575   -0.0732 C   0  0  0  0  0  0  0  0  0  0  0  0
    8.1649    0.3371    0.3748 O   0  0  0  0  0  0  0  0  0  0  0  0
    8.8895    1.5309    0.1859 C   0  0  0  0  0  0  0  0  0  0  0  0
    6.2519   -0.9893    0.1551 C   0  0  0  0  0  0  0  0  0  0  0  0
    6.9999   -1.9137    0.7872 O   0  0  0  0  0  0  0  0  0  0  0  0
    6.4588   -3.1897    1.0350 C   0  0  0  0  0  0  0  0  0  0  0  0
    4.9448   -1.1646   -0.2719 C   0  0  0  0  0  0  0  0  0  0  0  0
   -0.0999   -1.3455   -0.7228 C   0  0  0  0  0  0  0  0  0  0  0  0
   -4.2177    2.8580    0.5527 C   0  0  0  0  0  0  0  0  0  0  0  0
   -4.8861    2.5338    1.8869 C   0  0  0  0  0  0  0  0  0  0  0  0
   -3.8257    4.3323    0.5167 C   0  0  0  0  0  0  0  0  0  0  0  0
   -4.8123    0.7233   -1.3938 H   0  0  0  0  0  0  0  0  0  0  0  0
   -6.9175   -0.0363   -2.0803 H   0  0  0  0  0  0  0  0  0  0  0  0
   -7.1304   -1.5250   -3.0311 H   0  0  0  0  0  0  0  0  0  0  0  0
   -5.6217   -0.5933   -3.1802 H   0  0  0  0  0  0  0  0  0  0  0  0
   -4.0502   -4.3184    1.9033 H   0  0  0  0  0  0  0  0  0  0  0  0
   -5.4252   -5.2474    1.0175 H   0  0  0  0  0  0  0  0  0  0  0  0
   -2.2019   -3.7199    2.9012 H   0  0  0  0  0  0  0  0  0  0  0  0
   -3.2251   -2.3995    2.0870 H   0  0  0  0  0  0  0  0  0  0  0  0
   -2.4094   -0.1231    2.0367 H   0  0  0  0  0  0  0  0  0  0  0  0
   -3.2327    2.3223   -1.8415 H   0  0  0  0  0  0  0  0  0  0  0  0
   -1.8726    3.1380   -1.0813 H   0  0  0  0  0  0  0  0  0  0  0  0
   -1.9829    0.1303   -1.6063 H   0  0  0  0  0  0  0  0  0  0  0  0
   -1.2997    1.3198   -2.7172 H   0  0  0  0  0  0  0  0  0  0  0  0
   -0.9905    1.5026    0.9174 H   0  0  0  0  0  0  0  0  0  0  0  0
    0.3822    1.9939   -0.9187 H   0  0  0  0  0  0  0  0  0  0  0  0
    2.0327   -0.6229    0.6352 H   0  0  0  0  0  0  0  0  0  0  0  0
    2.1014    1.0637    0.1007 H   0  0  0  0  0  0  0  0  0  0  0  0
    2.6187    0.2824   -2.2255 H   0  0  0  0  0  0  0  0  0  0  0  0
    2.6694   -1.3870   -1.6368 H   0  0  0  0  0  0  0  0  0  0  0  0
    4.3820    1.8671   -1.6519 H   0  0  0  0  0  0  0  0  0  0  0  0
    6.6763    2.2172   -0.9131 H   0  0  0  0  0  0  0  0  0  0  0  0
    8.4097    2.3750    0.6903 H   0  0  0  0  0  0  0  0  0  0  0  0
    9.0120    1.7610   -0.8767 H   0  0  0  0  0  0  0  0  0  0  0  0
    9.8663    1.3525    0.6313 H   0  0  0  0  0  0  0  0  0  0  0  0
    7.2490   -3.7503    1.5304 H   0  0  0  0  0  0  0  0  0  0  0  0
    5.5870   -3.1349    1.6946 H   0  0  0  0  0  0  0  0  0  0  0  0
    6.1844   -3.6965    0.1047 H   0  0  0  0  0  0  0  0  0  0  0  0
    4.4482   -2.1085   -0.1102 H   0  0  0  0  0  0  0  0  0  0  0  0
   -0.2616   -1.6365   -1.7628 H   0  0  0  0  0  0  0  0  0  0  0  0
   -1.0580   -1.3674   -0.1979 H   0  0  0  0  0  0  0  0  0  0  0  0
    0.5606   -2.0726   -0.2581 H   0  0  0  0  0  0  0  0  0  0  0  0
   -4.9515    2.6852   -0.2428 H   0  0  0  0  0  0  0  0  0  0  0  0
   -4.1922    2.7080    2.7027 H   0  0  0  0  0  0  0  0  0  0  0  0
   -5.2184    1.4991    1.9211 H   0  0  0  0  0  0  0  0  0  0  0  0
   -5.7515    3.1759    2.0263 H   0  0  0  0  0  0  0  0  0  0  0  0
   -3.0725    4.5415    1.2697 H   0  0  0  0  0  0  0  0  0  0  0  0
   -3.4520    4.6302   -0.4593 H   0  0  0  0  0  0  0  0  0  0  0  0
   -4.7009    4.9380    0.7357 H   0  0  0  0  0  0  0  0  0  0  0  0
   -1.0986    2.8217    2.8493 H   0  0  0  0  0  0  0  0  0  0  0  0
  1  2  2  0  0  0  0
  2  3  1  0  0  0  0
  3  4  1  0  0  0  0
  4  5  4  0  0  0  0
  5  6  4  0  0  0  0
  6  7  1  0  0  0  0
  7  8  1  0  0  0  0
  6  9  4  0  0  0  0
  9 10  1  0  0  0  0
 10 11  4  0  0  0  0
  9 12  4  0  0  0  0
  4 13  4  0  0  0  0
 12 13  4  0  0  0  0
  3 14  1  0  0  0  0
 14 15  1  0  0  0  0
 15 16  1  0  0  0  0
 16 17  4  0  0  0  0
 17 18  1  0  0  0  0
 18 19  1  0  0  0  0
 19 20  1  0  0  0  0
 20 21  4  0  0  0  0
 21 22  4  0  0  0  0
 22 23  4  0  0  0  0
 23 24  1  0  0  0  0
 24 25  1  0  0  0  0
 23 26  4  0  0  0  0
 26 27  1  0  0  0  0
 27 28  1  0  0  0  0
 20 29  4  0  0  0  0
 26 29  4  0  0  0  0
 17 30  1  0  0  0  0
  3 31  1  0  0  0  0
 31 32  1  0  0  0  0
 31 33  1  0  0  0  0
  5 34  1  0  0  0  0
  8 35  1  0  0  0  0
  8 36  1  0  0  0  0
  8 37  1  0  0  0  0
 11 38  1  0  0  0  0
 11 39  1  0  0  0  0
 12 41  1  0  0  0  0
 13 42  1  0  0  0  0
 14 43  1  0  0  0  0
 14 44  1  0  0  0  0
 15 45  1  0  0  0  0
 15 46  1  0  0  0  0
  2 47  1  0  0  0  0
 16 48  1  0  0  0  0
 18 49  1  0  0  0  0
 18 50  1  0  0  0  0
 19 51  1  0  0  0  0
 19 52  1  0  0  0  0
 21 53  1  0  0  0  0
 22 54  1  0  0  0  0
 25 55  1  0  0  0  0
 25 56  1  0  0  0  0
 25 57  1  0  0  0  0
 28 58  1  0  0  0  0
 28 59  1  0  0  0  0
 28 60  1  0  0  0  0
 29 61  1  0  0  0  0
 30 62  1  0  0  0  0
 30 63  1  0  0  0  0
 30 64  1  0  0  0  0
 31 65  1  0  0  0  0
 32 66  1  0  0  0  0
 32 67  1  0  0  0  0
 32 68  1  0  0  0  0
 33 69  1  0  0  0  0
 33 70  1  0  0  0  0
 33 71  1  0  0  0  0
  1 72  1  0  0  0  0
M  CHG  1   1   1
M  END
