          24
 
C              3.22827043        1.15609501        0.00378825
N              2.28569316        0.06879336       -0.00449581
C              2.57117578       -1.22870707       -0.01285998
N              1.43278549       -1.95327224       -0.00940720
C              0.37571104       -1.07641353        0.00050338
C              0.91843408        0.20365721        0.00373624
C              0.09641998        1.39307850        0.00778463
O              0.49942397        2.53435961        0.01217361
N             -1.26415102        1.06606918        0.00407602
C             -2.21388583        2.17456629       -0.00691196
C             -1.84350518       -0.17255735       -0.00316314
O             -3.02640765       -0.35883229       -0.02038840
N             -0.95378266       -1.32822552        0.00966277
C             -1.51465542       -2.54738831        0.02558341
H              3.83433571        1.12409751        0.90953858
H              3.88739761        1.09259474       -0.86179555
H              2.67735586        2.09573912       -0.02660507
H              3.55922711       -1.64557569       -0.02248717
H             -1.64692815        3.10203478        0.00299563
H             -2.83392195        2.11993015       -0.90063517
H             -2.85952878        2.11608818        0.86793625
H             -0.90717578       -3.43061845        0.01335541
H             -2.58697818       -2.59775548        0.03398088
H              1.38646895       -2.96165768       -0.01783686
