          24
 
C              3.21440480        1.15472341        0.01878915
N              2.27200059        0.06652864        0.00430467
C              2.55519178       -1.23074953        0.00757657
N              1.41588880       -1.95409753       -0.00510344
C              0.36129506       -1.07526046       -0.01214392
C              0.90453607        0.20368433       -0.00593744
C              0.08246608        1.39452978       -0.03147138
O              0.48598886        2.53398120       -0.06946320
N             -1.27816297        1.06864242       -0.00934642
C             -2.22841986        2.17810625       -0.00188937
C             -1.86019633       -0.16747341        0.01444067
O             -3.04109900       -0.35151777        0.05615075
N             -0.97027546       -1.32451627       -0.02529700
C             -1.53628202       -2.53889410       -0.07188710
H              3.71278360        1.21175692        0.98800493
H              3.96766991        1.01228825       -0.75520158
H              2.67729344        2.08659635       -0.15523350
H              3.54184342       -1.65213824        0.01703529
H             -1.66313539        3.10553315       -0.03981507
H             -2.88944208        2.10180602       -0.86387975
H             -2.83244929        2.13696929        0.90330868
H             -0.93640190       -3.42715879       -0.10946289
H             -2.60832927       -2.58117805       -0.06735336
H              1.36204723       -2.96319782        0.00568429
