 xtb: 6.6.1 (8d0f1dd)
          06052419573D

 25 25  0     0  0            999 V2000
    3.1956    1.1658    0.0141 C   0  0  0  0  0  0  0  0  0  0  0  0
    2.1987    0.1335   -0.0047 N   0  0  0  0  0  0  0  0  0  0  0  0
    2.4176   -1.2089   -0.0099 C   0  0  0  0  0  0  0  0  0  0  0  0
    1.3141   -1.9157   -0.0096 N   0  0  0  0  0  0  0  0  0  0  0  0
    0.3086   -1.0040   -0.0033 C   0  0  0  0  0  0  0  0  0  0  0  0
    0.8547    0.2947    0.0024 C   0  0  0  0  0  0  0  0  0  0  0  0
    0.0208    1.4792   -0.0027 C   0  0  0  0  0  0  0  0  0  0  0  0
    0.4197    2.6197   -0.0111 O   0  0  0  0  0  0  0  0  0  0  0  0
   -1.3328    1.1487    0.0008 N   0  0  0  0  0  0  0  0  0  0  0  0
   -2.2926    2.2432    0.0018 C   0  0  0  0  0  0  0  0  0  0  0  0
   -1.8944   -0.1166    0.0006 C   0  0  0  0  0  0  0  0  0  0  0  0
   -3.0827   -0.2846    0.0038 O   0  0  0  0  0  0  0  0  0  0  0  0
   -1.0121   -1.2222   -0.0049 N   0  0  0  0  0  0  0  0  0  0  0  0
   -1.5627   -2.5518   -0.0077 C   0  0  0  0  0  0  0  0  0  0  0  0
    3.7069    1.1758    0.9790 H   0  0  0  0  0  0  0  0  0  0  0  0
    3.9341    0.9850   -0.7671 H   0  0  0  0  0  0  0  0  0  0  0  0
    2.7166    2.1309   -0.1439 H   0  0  0  0  0  0  0  0  0  0  0  0
    3.3979   -1.6428   -0.0159 H   0  0  0  0  0  0  0  0  0  0  0  0
   -1.7412    3.1803    0.0115 H   0  0  0  0  0  0  0  0  0  0  0  0
   -2.9235    2.1835   -0.8854 H   0  0  0  0  0  0  0  0  0  0  0  0
   -2.9350    2.1707    0.8795 H   0  0  0  0  0  0  0  0  0  0  0  0
   -1.2201   -3.0968    0.8726 H   0  0  0  0  0  0  0  0  0  0  0  0
   -1.2273   -3.0902   -0.8951 H   0  0  0  0  0  0  0  0  0  0  0  0
   -2.6488   -2.4741   -0.0037 H   0  0  0  0  0  0  0  0  0  0  0  0
    2.5485   -4.4851    0.0298 H   0  0  0  0  0  0  0  0  0  0  0  0
  1  2  1  0  0  0  0
  2  3  4  0  0  0  0
  3  4  2  0  0  0  0
  4  5  4  0  0  0  0
  2  6  4  0  0  0  0
  5  6  4  0  0  0  0
  6  7  1  0  0  0  0
  7  8  2  0  0  0  0
  7  9  1  0  0  0  0
  9 10  1  0  0  0  0
  9 11  1  0  0  0  0
 11 12  2  0  0  0  0
  5 13  4  0  0  0  0
 11 13  1  0  0  0  0
 13 14  1  0  0  0  0
  1 15  1  0  0  0  0
  1 16  1  0  0  0  0
  1 17  1  0  0  0  0
  3 18  1  0  0  0  0
 10 19  1  0  0  0  0
 10 20  1  0  0  0  0
 10 21  1  0  0  0  0
 14 22  1  0  0  0  0
 14 23  1  0  0  0  0
 14 24  1  0  0  0  0
M  CHG  1   1   1
M  END
