 xtb: 6.6.1 (8d0f1dd)
          06052420003D

 25 25  0     0  0            999 V2000
    2.9557    1.2968   -0.3295 C   0  0  0  0  0  0  0  0  0  0  0  0
    2.2296    0.0698   -0.1448 N   0  0  0  0  0  0  0  0  0  0  0  0
    2.7859   -1.1096    0.0242 C   0  0  0  0  0  0  0  0  0  0  0  0
    1.8526   -2.0459    0.1703 N   0  0  0  0  0  0  0  0  0  0  0  0
    0.5671   -1.4894    0.1042 C   0  0  0  0  0  0  0  0  0  0  0  0
    0.8261   -0.0701   -0.1237 C   0  0  0  0  0  0  0  0  0  0  0  0
    0.0643    1.0895   -0.2535 C   0  0  0  0  0  0  0  0  0  0  0  0
    0.3845    2.2451   -0.3228 O   0  0  0  0  0  0  0  0  0  0  0  0
   -1.5029    0.8703   -0.3106 N   0  0  0  0  0  0  0  0  0  0  0  0
   -2.1690    1.2913    0.9240 C   0  0  0  0  0  0  0  0  0  0  0  0
   -2.0262    0.8925   -1.4421 C   0  0  0  0  0  0  0  0  0  0  0  0
   -2.3790    0.8621   -2.5346 O   0  0  0  0  0  0  0  0  0  0  0  0
   -0.3914   -2.3035    0.2807 N   0  0  0  0  0  0  0  0  0  0  0  0
   -1.7984   -2.1363    0.2645 C   0  0  0  0  0  0  0  0  0  0  0  0
    2.7409    1.9928    0.4825 H   0  0  0  0  0  0  0  0  0  0  0  0
    4.0210    1.0801   -0.3498 H   0  0  0  0  0  0  0  0  0  0  0  0
    2.6651    1.7766   -1.2645 H   0  0  0  0  0  0  0  0  0  0  0  0
    3.8451   -1.2873    0.0409 H   0  0  0  0  0  0  0  0  0  0  0  0
   -2.0261    2.3638    1.0703 H   0  0  0  0  0  0  0  0  0  0  0  0
   -3.2325    1.0677    0.8726 H   0  0  0  0  0  0  0  0  0  0  0  0
   -1.7122    0.7561    1.7555 H   0  0  0  0  0  0  0  0  0  0  0  0
   -2.1435   -1.4684    1.0571 H   0  0  0  0  0  0  0  0  0  0  0  0
   -2.2282   -3.1230    0.4403 H   0  0  0  0  0  0  0  0  0  0  0  0
   -2.1628   -1.7690   -0.6988 H   0  0  0  0  0  0  0  0  0  0  0  0
    1.9945   -3.0338    0.3188 H   0  0  0  0  0  0  0  0  0  0  0  0
  1  2  1  0  0  0  0
  2  3  4  0  0  0  0
  3  4  4  0  0  0  0
  4  5  1  0  0  0  0
  2  6  1  0  0  0  0
  5  6  1  0  0  0  0
  6  7  4  0  0  0  0
  7  8  2  0  0  0  0
  7  9  1  0  0  0  0
  9 10  1  0  0  0  0
  9 11  2  0  0  0  0
 11 12  2  0  0  0  0
  5 13  2  0  0  0  0
 13 14  1  0  0  0  0
  1 15  1  0  0  0  0
  1 16  1  0  0  0  0
  1 17  1  0  0  0  0
  3 18  1  0  0  0  0
 10 19  1  0  0  0  0
 10 20  1  0  0  0  0
 10 21  1  0  0  0  0
 14 22  1  0  0  0  0
 14 23  1  0  0  0  0
 14 24  1  0  0  0  0
  4 25  1  0  0  0  0
M  CHG  1   1   1
M  END
