          24
 
C              3.23340006        1.11896706        0.02870280
N              2.27701028        0.04485202        0.00322405
C              2.54189224       -1.25871777        0.00552600
N              1.38508756       -1.96190982        0.00053108
C              0.35131660       -1.07389038       -0.00329685
C              0.90694586        0.19947589       -0.00043595
C              0.10805447        1.38729347       -0.01539321
O              0.48695908        2.53660135       -0.04738253
N             -1.29517765        1.07252407        0.00506142
C             -2.15296442        2.10213861        0.01059183
C             -1.86326555       -0.23473786        0.01198498
O             -3.05236208       -0.39516433        0.03283007
N             -0.97637744       -1.30782036       -0.01004645
C             -1.51022166       -2.65735020       -0.03197325
H              3.68617924        1.20003184        1.01853177
H              4.01988936        0.94218662       -0.70392831
H              2.71945914        2.05245588       -0.19742767
H              3.52039033       -1.69636605        0.00873342
H             -1.74472415        3.09480128        0.00264986
H             -3.20510290        1.89654055        0.02180020
H             -1.22404697       -3.19607173        0.87159579
H             -1.15832623       -3.18826977       -0.91672970
H             -2.59596759       -2.58397188       -0.06979332
H              1.31544052       -2.96935766       -0.00037064
