          21
 
N              2.23702288       -0.36176141       -0.03871673
C              2.35990078       -1.65441921       -0.03215081
N              1.14599973       -2.29048594       -0.01666435
C              0.20591591       -1.31265438       -0.01518652
C              0.90727667       -0.10008906       -0.03044349
C              0.20280080        1.16211934       -0.02587031
O              0.70840077        2.26230607       -0.03776343
N             -1.18152684        0.98423099       -0.00498890
C             -2.01729901        2.17568227        0.00407589
C             -1.88372254       -0.20892855        0.01093073
O             -3.08527118       -0.23839771        0.03312817
N             -1.13524794       -1.39880263       -0.00074088
C             -1.83291370       -2.66701440        0.01270922
H              3.29597912       -2.17635428       -0.03810016
H             -1.37077682        3.04696289       -0.06917123
H             -2.71397536        2.14364239       -0.83422574
H             -2.59966141        2.21408638        0.92576263
H             -1.55854071       -3.24260316        0.89817400
H             -1.60037157       -3.23874467       -0.88699179
H             -2.90190778       -2.45798923        0.03821627
H              0.99542958       -3.28800489       -0.01376477
