 xtb: 6.6.1 (8d0f1dd)
          04062411123D

 72 73  0     0  0            999 V2000
   -0.7870    1.7500    0.6527 N   0  0  0  0  0  0  0  0  0  0  0  0
   -2.0406    1.9426    1.0353 C   0  0  0  0  0  0  0  0  0  0  0  0
   -3.1857    1.9107    0.0886 C   0  0  0  0  0  0  0  0  0  0  0  0
   -3.8307    0.5485    0.3032 C   0  0  0  0  0  0  0  0  0  0  0  0
   -4.4522   -0.1592   -0.6520 C   0  0  0  0  0  0  0  0  0  0  0  0
   -5.0459   -1.4626   -0.4965 C   0  0  0  0  0  0  0  0  0  0  0  0
   -6.0766   -1.8599   -1.2810 O   0  0  0  0  0  0  0  0  0  0  0  0
   -6.7565   -0.9147   -2.0716 C   0  0  0  0  0  0  0  0  0  0  0  0
   -4.6063   -2.4180    0.4034 C   0  0  0  0  0  0  0  0  0  0  0  0
   -5.3058   -3.5785    0.4512 O   0  0  0  0  0  0  0  0  0  0  0  0
   -4.8210   -4.6404    1.2373 C   0  0  0  0  0  0  0  0  0  0  0  0
   -3.4541   -2.2432    1.1881 C   0  0  0  0  0  0  0  0  0  0  0  0
   -2.5040   -2.3303    1.9314 C   0  0  0  0  0  0  0  0  0  0  0  0
   -2.6430    2.0854   -1.3382 C   0  0  0  0  0  0  0  0  0  0  0  0
   -1.5205    1.0921   -1.6029 C   0  0  0  0  0  0  0  0  0  0  0  0
   -0.3244    1.3983   -0.7041 C   0  0  0  0  0  0  0  0  0  0  0  0
    0.6047    0.3208   -0.6608 N   0  0  0  0  0  0  0  0  0  0  0  0
    1.9842    0.5994   -0.3272 C   0  0  0  0  0  0  0  0  0  0  0  0
    2.9238   -0.1353   -1.3008 C   0  0  0  0  0  0  0  0  0  0  0  0
    4.3539    0.0025   -0.8695 C   0  0  0  0  0  0  0  0  0  0  0  0
    5.0654    1.1649   -1.1250 C   0  0  0  0  0  0  0  0  0  0  0  0
    6.3792    1.3006   -0.7057 C   0  0  0  0  0  0  0  0  0  0  0  0
    7.0123    0.2735   -0.0194 C   0  0  0  0  0  0  0  0  0  0  0  0
    8.2838    0.2930    0.4261 O   0  0  0  0  0  0  0  0  0  0  0  0
    9.0828    1.4238    0.1680 C   0  0  0  0  0  0  0  0  0  0  0  0
    6.2909   -0.9212    0.2509 C   0  0  0  0  0  0  0  0  0  0  0  0
    6.9788   -1.8722    0.9164 O   0  0  0  0  0  0  0  0  0  0  0  0
    6.3598   -3.1083    1.1806 C   0  0  0  0  0  0  0  0  0  0  0  0
    4.9760   -1.0302   -0.1736 C   0  0  0  0  0  0  0  0  0  0  0  0
    0.1003   -0.9681   -0.2276 C   0  0  0  0  0  0  0  0  0  0  0  0
   -4.2205    3.0409    0.4045 C   0  0  0  0  0  0  0  0  0  0  0  0
   -5.0146    2.7837    1.6824 C   0  0  0  0  0  0  0  0  0  0  0  0
   -3.5528    4.4138    0.4872 C   0  0  0  0  0  0  0  0  0  0  0  0
   -4.5717    0.2699   -1.6374 H   0  0  0  0  0  0  0  0  0  0  0  0
   -6.9840   -0.0054   -1.5081 H   0  0  0  0  0  0  0  0  0  0  0  0
   -7.6841   -1.3988   -2.3719 H   0  0  0  0  0  0  0  0  0  0  0  0
   -6.1860   -0.6573   -2.9702 H   0  0  0  0  0  0  0  0  0  0  0  0
   -4.7601   -4.3644    2.2945 H   0  0  0  0  0  0  0  0  0  0  0  0
   -5.5414   -5.4472    1.1097 H   0  0  0  0  0  0  0  0  0  0  0  0
   -3.8343   -4.9712    0.8998 H   0  0  0  0  0  0  0  0  0  0  0  0
   -3.7673    0.1583    1.3075 H   0  0  0  0  0  0  0  0  0  0  0  0
   -1.6361   -2.3090    2.5263 H   0  0  0  0  0  0  0  0  0  0  0  0
   -3.4409    1.9605   -2.0668 H   0  0  0  0  0  0  0  0  0  0  0  0
   -2.2554    3.0972   -1.4498 H   0  0  0  0  0  0  0  0  0  0  0  0
   -1.8781    0.0813   -1.4147 H   0  0  0  0  0  0  0  0  0  0  0  0
   -1.1906    1.1501   -2.6393 H   0  0  0  0  0  0  0  0  0  0  0  0
   -2.2278    2.0643    2.0900 H   0  0  0  0  0  0  0  0  0  0  0  0
    0.2039    2.2811   -1.0929 H   0  0  0  0  0  0  0  0  0  0  0  0
    2.2243    0.2882    0.7007 H   0  0  0  0  0  0  0  0  0  0  0  0
    2.1680    1.6729   -0.4029 H   0  0  0  0  0  0  0  0  0  0  0  0
    2.7844    0.2842   -2.2975 H   0  0  0  0  0  0  0  0  0  0  0  0
    2.6434   -1.1877   -1.3331 H   0  0  0  0  0  0  0  0  0  0  0  0
    4.5987    1.9729   -1.6675 H   0  0  0  0  0  0  0  0  0  0  0  0
    6.9080    2.2137   -0.9252 H   0  0  0  0  0  0  0  0  0  0  0  0
    8.6744    2.3204    0.6445 H   0  0  0  0  0  0  0  0  0  0  0  0
    9.1932    1.5990   -0.9063 H   0  0  0  0  0  0  0  0  0  0  0  0
   10.0563    1.1980    0.5989 H   0  0  0  0  0  0  0  0  0  0  0  0
    7.1128   -3.7108    1.6848 H   0  0  0  0  0  0  0  0  0  0  0  0
    5.4920   -2.9909    1.8379 H   0  0  0  0  0  0  0  0  0  0  0  0
    6.0537   -3.6095    0.2570 H   0  0  0  0  0  0  0  0  0  0  0  0
    4.4208   -1.9344    0.0216 H   0  0  0  0  0  0  0  0  0  0  0  0
   -0.1426   -1.5954   -1.0884 H   0  0  0  0  0  0  0  0  0  0  0  0
   -0.7983   -0.8672    0.3868 H   0  0  0  0  0  0  0  0  0  0  0  0
    0.8579   -1.4825    0.3612 H   0  0  0  0  0  0  0  0  0  0  0  0
   -4.9258    3.0464   -0.4326 H   0  0  0  0  0  0  0  0  0  0  0  0
   -4.3715    2.7756    2.5583 H   0  0  0  0  0  0  0  0  0  0  0  0
   -5.5508    1.8402    1.6317 H   0  0  0  0  0  0  0  0  0  0  0  0
   -5.7441    3.5790    1.8153 H   0  0  0  0  0  0  0  0  0  0  0  0
   -2.7780    4.4241    1.2502 H   0  0  0  0  0  0  0  0  0  0  0  0
   -3.1120    4.7126   -0.4591 H   0  0  0  0  0  0  0  0  0  0  0  0
   -4.2968    5.1615    0.7499 H   0  0  0  0  0  0  0  0  0  0  0  0
   -0.0614    1.7419    1.3568 H   0  0  0  0  0  0  0  0  0  0  0  0
  1  2  4  0  0  0  0
  2  3  1  0  0  0  0
  3  4  1  0  0  0  0
  4  5  2  0  0  0  0
  5  6  1  0  0  0  0
  6  7  1  0  0  0  0
  7  8  1  0  0  0  0
  6  9  4  0  0  0  0
  9 10  1  0  0  0  0
 10 11  1  0  0  0  0
  9 12  1  0  0  0  0
 12 13  3  0  0  0  0
  3 14  1  0  0  0  0
 14 15  1  0  0  0  0
  1 16  1  0  0  0  0
 15 16  1  0  0  0  0
 16 17  1  0  0  0  0
 17 18  1  0  0  0  0
 18 19  1  0  0  0  0
 19 20  1  0  0  0  0
 20 21  4  0  0  0  0
 21 22  4  0  0  0  0
 22 23  4  0  0  0  0
 23 24  1  0  0  0  0
 24 25  1  0  0  0  0
 23 26  4  0  0  0  0
 26 27  1  0  0  0  0
 27 28  1  0  0  0  0
 20 29  4  0  0  0  0
 26 29  4  0  0  0  0
 17 30  1  0  0  0  0
  3 31  1  0  0  0  0
 31 32  1  0  0  0  0
 31 33  1  0  0  0  0
  5 34  1  0  0  0  0
  8 35  1  0  0  0  0
  8 36  1  0  0  0  0
  8 37  1  0  0  0  0
 11 38  1  0  0  0  0
 11 39  1  0  0  0  0
 11 40  1  0  0  0  0
  4 41  1  0  0  0  0
 13 42  1  0  0  0  0
 14 43  1  0  0  0  0
 14 44  1  0  0  0  0
 15 45  1  0  0  0  0
 15 46  1  0  0  0  0
  2 47  1  0  0  0  0
 16 48  1  0  0  0  0
 18 49  1  0  0  0  0
 18 50  1  0  0  0  0
 19 51  1  0  0  0  0
 19 52  1  0  0  0  0
 21 53  1  0  0  0  0
 22 54  1  0  0  0  0
 25 55  1  0  0  0  0
 25 56  1  0  0  0  0
 25 57  1  0  0  0  0
 28 58  1  0  0  0  0
 28 59  1  0  0  0  0
 28 60  1  0  0  0  0
 29 61  1  0  0  0  0
 30 62  1  0  0  0  0
 30 63  1  0  0  0  0
 30 64  1  0  0  0  0
 31 65  1  0  0  0  0
 32 66  1  0  0  0  0
 32 67  1  0  0  0  0
 32 68  1  0  0  0  0
 33 69  1  0  0  0  0
 33 70  1  0  0  0  0
 33 71  1  0  0  0  0
  1 72  1  0  0  0  0
M  CHG  1   1   1
M  END
