          71
 
N             -2.54965234        2.68113419        2.60265594
C             -1.96018458        2.15760716        1.53892906
C             -2.92127162        1.98899234        0.41108240
C             -3.46386099        0.55813108        0.38241654
C             -4.49087086        0.23610977       -0.50638705
C             -5.00934918       -1.04561247       -0.57063584
O             -6.00560964       -1.44445447       -1.38784976
C             -6.67542419       -0.48698837       -2.17336085
C             -4.47642484       -2.05930935        0.27059515
O             -5.02604708       -3.28067355        0.12046967
C             -4.56219724       -4.34369437        0.91905876
C             -3.46309615       -1.72804693        1.15386981
C             -2.96533260       -0.43101799        1.21071184
C             -2.30948780        2.33774295       -0.95975961
C             -1.38340286        1.24876587       -1.52461911
C             -0.08002292        1.15649371       -0.83258461
N              0.52981664        0.02402418       -0.48120710
C              1.92557189        0.04274220       -0.11240480
C              2.83352643       -0.21499436       -1.33196832
C              4.27992968       -0.15121807       -0.93180018
C              4.98499382        1.03767400       -1.00655775
C              6.31638301        1.09832769       -0.62296620
C              6.96696728       -0.03117554       -0.14980918
O              8.25413149       -0.08974198        0.24503565
C              9.04934946        1.07006195        0.16258180
C              6.24919916       -1.25489765       -0.06238333
O              6.95746120       -2.30392205        0.40612904
C              6.33750499       -3.56362098        0.49930171
C              4.92054337       -1.29173683       -0.45145310
C             -0.07107474       -1.26744111       -0.71129330
C             -4.07711120        2.94986547        0.85729201
C             -3.94100110        2.97935823        2.39058455
C             -3.96096001        4.36724059        0.30317938
H             -4.88843186        1.00118327       -1.15312857
H             -7.10929924        0.30527701       -1.55574095
H             -7.47427000       -1.02910899       -2.67514937
H             -6.01210976       -0.04629579       -2.92457919
H             -4.73478877       -4.15366364        1.98238398
H             -5.13959864       -5.21290117        0.61035829
H             -3.49802380       -4.53749751        0.74964243
H             -3.05567204       -2.47135562        1.81973170
H             -2.18541245       -0.20552943        1.92252055
H             -3.12171596        2.47902899       -1.67138324
H             -1.75872506        3.27512714       -0.88394791
H             -1.90514410        0.29380084       -1.52722546
H             -1.18549957        1.51825329       -2.57115627
H             -0.92039887        1.89321931        1.52960567
H              0.47012139        2.06942391       -0.66708168
H              2.10767524       -0.72186759        0.64644877
H              2.17506552        1.01607202        0.31510444
H              2.62173550        0.54276837       -2.08825369
H              2.60471882       -1.19553021       -1.75146495
H              4.50432528        1.92899737       -1.38054940
H              6.84207285        2.03557479       -0.70305995
H              8.65982080        1.86981207        0.80002213
H              9.12811301        1.42934887       -0.86796976
H             10.03457807        0.77400504        0.51754566
H              7.10096684       -4.23747383        0.88305503
H              5.49110917       -3.54465455        1.19370266
H              6.00067125       -3.91910018       -0.47963132
H              4.36938444       -2.21776955       -0.40071171
H             -0.15919859       -1.48493524       -1.77861633
H             -1.06592222       -1.30642649       -0.26313863
H              0.54606407       -2.03514350       -0.25101310
H             -5.04364872        2.53728497        0.56981435
H             -4.58002158        2.23872155        2.89966980
H             -4.18510359        3.95911558        2.80595152
H             -3.01263089        4.82080648        0.58236489
H             -4.05199124        4.38511400       -0.77851153
H             -4.76398334        4.97700477        0.70989938
H             -2.11200800        2.79381440        3.50351996
