 xtb: 6.6.1 (8d0f1dd)
          06052420003D

 25 25  0     0  0            999 V2000
    3.1637    0.8812    0.1862 C   0  0  0  0  0  0  0  0  0  0  0  0
    2.2660   -0.0947    0.1128 N   0  0  0  0  0  0  0  0  0  0  0  0
    2.4916   -1.4263    0.0500 C   0  0  0  0  0  0  0  0  0  0  0  0
    1.3060   -2.0947   -0.0083 N   0  0  0  0  0  0  0  0  0  0  0  0
    0.3013   -1.1792    0.0180 C   0  0  0  0  0  0  0  0  0  0  0  0
    0.8832    0.0750    0.0901 C   0  0  0  0  0  0  0  0  0  0  0  0
    0.0945    1.2847    0.1251 C   0  0  0  0  0  0  0  0  0  0  0  0
    0.5279    2.4119    0.1786 O   0  0  0  0  0  0  0  0  0  0  0  0
   -1.2713    0.9976    0.0762 N   0  0  0  0  0  0  0  0  0  0  0  0
   -2.1952    2.1232    0.0987 C   0  0  0  0  0  0  0  0  0  0  0  0
   -1.8764   -0.2434    0.0107 C   0  0  0  0  0  0  0  0  0  0  0  0
   -3.0672   -0.3780   -0.0228 O   0  0  0  0  0  0  0  0  0  0  0  0
   -1.0270   -1.3725   -0.0190 N   0  0  0  0  0  0  0  0  0  0  0  0
   -1.6157   -2.6943   -0.0775 C   0  0  0  0  0  0  0  0  0  0  0  0
    2.8090    1.8955    0.2356 H   0  0  0  0  0  0  0  0  0  0  0  0
    4.2089    0.6371    0.2020 H   0  0  0  0  0  0  0  0  0  0  0  0
    4.1067    3.8492   -1.2452 H   0  0  0  0  0  0  0  0  0  0  0  0
    3.4544   -1.8928    0.0469 H   0  0  0  0  0  0  0  0  0  0  0  0
   -1.6119    3.0392    0.1545 H   0  0  0  0  0  0  0  0  0  0  0  0
   -2.8065    2.1167   -0.8032 H   0  0  0  0  0  0  0  0  0  0  0  0
   -2.8564    2.0415    0.9616 H   0  0  0  0  0  0  0  0  0  0  0  0
   -1.3175   -3.2830    0.7908 H   0  0  0  0  0  0  0  0  0  0  0  0
   -1.3230   -3.2053   -0.9959 H   0  0  0  0  0  0  0  0  0  0  0  0
   -2.6985   -2.5722   -0.0698 H   0  0  0  0  0  0  0  0  0  0  0  0
    1.2137   -3.0983   -0.0649 H   0  0  0  0  0  0  0  0  0  0  0  0
  1  2  4  0  0  0  0
  2  3  4  0  0  0  0
  3  4  4  0  0  0  0
  4  5  1  0  0  0  0
  2  6  1  0  0  0  0
  5  6  4  0  0  0  0
  6  7  1  0  0  0  0
  7  8  2  0  0  0  0
  7  9  1  0  0  0  0
  9 10  1  0  0  0  0
  9 11  1  0  0  0  0
 11 12  2  0  0  0  0
  5 13  4  0  0  0  0
 11 13  1  0  0  0  0
 13 14  1  0  0  0  0
  1 15  1  0  0  0  0
  1 16  1  0  0  0  0
  3 18  1  0  0  0  0
 10 19  1  0  0  0  0
 10 20  1  0  0  0  0
 10 21  1  0  0  0  0
 14 22  1  0  0  0  0
 14 23  1  0  0  0  0
 14 24  1  0  0  0  0
  4 25  1  0  0  0  0
M  CHG  1   1   1
M  END
