 xtb: 6.6.1 (8d0f1dd)
          04062411133D

 72 72  0     0  0            999 V2000
   -1.8873    2.8948    2.0936 N   0  0  0  0  0  0  0  0  0  0  0  0
   -1.9774    2.1656    1.0840 C   0  0  0  0  0  0  0  0  0  0  0  0
   -3.2332    1.9762    0.2777 C   0  0  0  0  0  0  0  0  0  0  0  0
   -3.6701    0.5222    0.3590 C   0  0  0  0  0  0  0  0  0  0  0  0
   -4.6307    0.0309   -0.5272 C   0  0  0  0  0  0  0  0  0  0  0  0
   -5.0692   -1.2815   -0.4645 C   0  0  0  0  0  0  0  0  0  0  0  0
   -5.9883   -1.8361   -1.2813 O   0  0  0  0  0  0  0  0  0  0  0  0
   -6.6225   -1.0377   -2.2524 C   0  0  0  0  0  0  0  0  0  0  0  0
   -4.5343   -2.1519    0.5240 C   0  0  0  0  0  0  0  0  0  0  0  0
   -5.0138   -3.4113    0.5086 O   0  0  0  0  0  0  0  0  0  0  0  0
   -4.6029   -4.3126    1.5105 C   0  0  0  0  0  0  0  0  0  0  0  0
   -3.5891   -1.6540    1.4073 C   0  0  0  0  0  0  0  0  0  0  0  0
   -3.1638   -0.3348    1.3244 C   0  0  0  0  0  0  0  0  0  0  0  0
   -2.8533    2.3478   -1.1801 C   0  0  0  0  0  0  0  0  0  0  0  0
   -1.9908    1.2997   -1.9014 C   0  0  0  0  0  0  0  0  0  0  0  0
   -0.5806    1.2619   -1.4443 C   0  0  0  0  0  0  0  0  0  0  0  0
    0.1353    0.1773   -1.2538 N   0  0  0  0  0  0  0  0  0  0  0  0
    1.6209    0.2261   -1.2946 C   0  0  0  0  0  0  0  0  0  0  0  0
    2.0515   -0.2444   -2.6132 C   0  0  0  0  0  0  0  0  0  0  0  0
    4.9652   -0.5657   -0.3963 C   0  0  0  0  0  0  0  0  0  0  0  0
    5.4147    0.6678   -0.7588 C   0  0  0  0  0  0  0  0  0  0  0  0
    6.7235    0.9980   -0.3971 C   0  0  0  0  0  0  0  0  0  0  0  0
    7.5160    0.0941    0.2956 C   0  0  0  0  0  0  0  0  0  0  0  0
    8.7860    0.3112    0.6950 O   0  0  0  0  0  0  0  0  0  0  0  0
    9.3969    1.5481    0.4083 C   0  0  0  0  0  0  0  0  0  0  0  0
    7.0006   -1.1893    0.6400 C   0  0  0  0  0  0  0  0  0  0  0  0
    7.8457   -1.9979    1.2999 O   0  0  0  0  0  0  0  0  0  0  0  0
    7.4303   -3.2965    1.6525 C   0  0  0  0  0  0  0  0  0  0  0  0
    5.6888   -1.5064    0.2779 C   0  0  0  0  0  0  0  0  0  0  0  0
   -0.4559   -1.1411   -1.2537 C   0  0  0  0  0  0  0  0  0  0  0  0
   -4.4208    2.8634    0.7570 C   0  0  0  0  0  0  0  0  0  0  0  0
   -4.8648    2.4902    2.1694 C   0  0  0  0  0  0  0  0  0  0  0  0
   -4.1207    4.3583    0.6914 C   0  0  0  0  0  0  0  0  0  0  0  0
   -5.0517    0.6888   -1.2693 H   0  0  0  0  0  0  0  0  0  0  0  0
   -7.1551   -0.1975   -1.7972 H   0  0  0  0  0  0  0  0  0  0  0  0
   -7.3386   -1.6924   -2.7452 H   0  0  0  0  0  0  0  0  0  0  0  0
   -5.9089   -0.6622   -2.9933 H   0  0  0  0  0  0  0  0  0  0  0  0
   -4.8581   -3.9441    2.5085 H   0  0  0  0  0  0  0  0  0  0  0  0
   -5.1481   -5.2344    1.3157 H   0  0  0  0  0  0  0  0  0  0  0  0
   -3.5274   -4.5100    1.4569 H   0  0  0  0  0  0  0  0  0  0  0  0
   -3.1809   -2.2851    2.1797 H   0  0  0  0  0  0  0  0  0  0  0  0
   -2.4467    0.0242    2.0463 H   0  0  0  0  0  0  0  0  0  0  0  0
   -3.7685    2.4883   -1.7546 H   0  0  0  0  0  0  0  0  0  0  0  0
   -2.3230    3.3007   -1.1713 H   0  0  0  0  0  0  0  0  0  0  0  0
   -2.4620    0.3209   -1.8296 H   0  0  0  0  0  0  0  0  0  0  0  0
   -1.9671    1.5810   -2.9630 H   0  0  0  0  0  0  0  0  0  0  0  0
   -1.1243    1.6142    0.6447 H   0  0  0  0  0  0  0  0  0  0  0  0
   -0.0483    2.2028   -1.4148 H   0  0  0  0  0  0  0  0  0  0  0  0
    2.0006   -0.4060   -0.4887 H   0  0  0  0  0  0  0  0  0  0  0  0
    1.9112    1.2624   -1.1041 H   0  0  0  0  0  0  0  0  0  0  0  0
    1.9217    0.3872   -3.4696 H   0  0  0  0  0  0  0  0  0  0  0  0
    2.2883   -1.2755   -2.7753 H   0  0  0  0  0  0  0  0  0  0  0  0
    4.8104    1.3719   -1.3065 H   0  0  0  0  0  0  0  0  0  0  0  0
    7.1046    1.9683   -0.6728 H   0  0  0  0  0  0  0  0  0  0  0  0
    8.8578    2.3784    0.8746 H   0  0  0  0  0  0  0  0  0  0  0  0
    9.4705    1.7182   -0.6702 H   0  0  0  0  0  0  0  0  0  0  0  0
   10.3971    1.4835    0.8326 H   0  0  0  0  0  0  0  0  0  0  0  0
    8.2866   -3.7534    2.1446 H   0  0  0  0  0  0  0  0  0  0  0  0
    6.5849   -3.2702    2.3469 H   0  0  0  0  0  0  0  0  0  0  0  0
    7.1633   -3.8845    0.7692 H   0  0  0  0  0  0  0  0  0  0  0  0
    5.2682   -2.4686    0.5238 H   0  0  0  0  0  0  0  0  0  0  0  0
   -0.7776   -1.4426   -2.2524 H   0  0  0  0  0  0  0  0  0  0  0  0
   -1.3175   -1.1607   -0.5835 H   0  0  0  0  0  0  0  0  0  0  0  0
    0.2828   -1.8563   -0.9002 H   0  0  0  0  0  0  0  0  0  0  0  0
   -5.2545    2.6530    0.0764 H   0  0  0  0  0  0  0  0  0  0  0  0
   -4.0687    2.6981    2.8773 H   0  0  0  0  0  0  0  0  0  0  0  0
   -5.1307    1.4379    2.2339 H   0  0  0  0  0  0  0  0  0  0  0  0
   -5.7351    3.0798    2.4450 H   0  0  0  0  0  0  0  0  0  0  0  0
   -3.2800    4.6011    1.3343 H   0  0  0  0  0  0  0  0  0  0  0  0
   -3.9049    4.6868   -0.3221 H   0  0  0  0  0  0  0  0  0  0  0  0
   -4.9883    4.9116    1.0421 H   0  0  0  0  0  0  0  0  0  0  0  0
   -0.9817    2.9758    2.5450 H   0  0  0  0  0  0  0  0  0  0  0  0
  1  2  2  0  0  0  0
  2  3  1  0  0  0  0
  3  4  1  0  0  0  0
  4  5  4  0  0  0  0
  5  6  4  0  0  0  0
  6  7  1  0  0  0  0
  7  8  1  0  0  0  0
  6  9  4  0  0  0  0
  9 10  1  0  0  0  0
 10 11  1  0  0  0  0
  9 12  4  0  0  0  0
  4 13  4  0  0  0  0
 12 13  4  0  0  0  0
  3 14  1  0  0  0  0
 14 15  1  0  0  0  0
 15 16  1  0  0  0  0
 16 17  4  0  0  0  0
 17 18  1  0  0  0  0
 18 19  1  0  0  0  0
 20 21  4  0  0  0  0
 21 22  4  0  0  0  0
 22 23  4  0  0  0  0
 23 24  1  0  0  0  0
 24 25  1  0  0  0  0
 23 26  4  0  0  0  0
 26 27  1  0  0  0  0
 27 28  1  0  0  0  0
 20 29  4  0  0  0  0
 26 29  4  0  0  0  0
 17 30  1  0  0  0  0
  3 31  1  0  0  0  0
 31 32  1  0  0  0  0
 31 33  1  0  0  0  0
  5 34  1  0  0  0  0
  8 35  1  0  0  0  0
  8 36  1  0  0  0  0
  8 37  1  0  0  0  0
 11 38  1  0  0  0  0
 11 39  1  0  0  0  0
 11 40  1  0  0  0  0
 12 41  1  0  0  0  0
 13 42  1  0  0  0  0
 14 43  1  0  0  0  0
 14 44  1  0  0  0  0
 15 45  1  0  0  0  0
 15 46  1  0  0  0  0
  2 47  1  0  0  0  0
 16 48  1  0  0  0  0
 18 49  1  0  0  0  0
 18 50  1  0  0  0  0
 19 51  1  0  0  0  0
 19 52  1  0  0  0  0
 21 53  1  0  0  0  0
 22 54  1  0  0  0  0
 25 55  1  0  0  0  0
 25 56  1  0  0  0  0
 25 57  1  0  0  0  0
 28 58  1  0  0  0  0
 28 59  1  0  0  0  0
 28 60  1  0  0  0  0
 29 61  1  0  0  0  0
 30 62  1  0  0  0  0
 30 63  1  0  0  0  0
 30 64  1  0  0  0  0
 31 65  1  0  0  0  0
 32 66  1  0  0  0  0
 32 67  1  0  0  0  0
 32 68  1  0  0  0  0
 33 69  1  0  0  0  0
 33 70  1  0  0  0  0
 33 71  1  0  0  0  0
  1 72  1  0  0  0  0
M  CHG  1   1   1
M  END
