 xtb: 6.6.1 (8d0f1dd)
          04062411113D

 72 74  0     0  0            999 V2000
   -2.6818    3.6721    1.9670 N   0  0  0  0  0  0  0  0  0  0  0  0
   -2.3656    2.4312    1.6174 C   0  0  0  0  0  0  0  0  0  0  0  0
   -3.1855    1.9743    0.4591 C   0  0  0  0  0  0  0  0  0  0  0  0
   -3.6369    0.5310    0.5012 C   0  0  0  0  0  0  0  0  0  0  0  0
   -4.4108    0.0401   -0.5532 C   0  0  0  0  0  0  0  0  0  0  0  0
   -4.8581   -1.2690   -0.5703 C   0  0  0  0  0  0  0  0  0  0  0  0
   -5.6255   -1.8192   -1.5362 O   0  0  0  0  0  0  0  0  0  0  0  0
   -6.1147   -1.0012   -2.5726 C   0  0  0  0  0  0  0  0  0  0  0  0
   -4.5077   -2.1399    0.4960 C   0  0  0  0  0  0  0  0  0  0  0  0
   -4.9653   -3.4033    0.3859 O   0  0  0  0  0  0  0  0  0  0  0  0
   -4.6698   -4.3290    1.4058 C   0  0  0  0  0  0  0  0  0  0  0  0
   -3.7557   -1.6387    1.5457 C   0  0  0  0  0  0  0  0  0  0  0  0
   -3.3343   -0.3151    1.5524 C   0  0  0  0  0  0  0  0  0  0  0  0
   -2.3717    2.2498   -0.8478 C   0  0  0  0  0  0  0  0  0  0  0  0
   -1.4381    1.1229   -1.2857 C   0  0  0  0  0  0  0  0  0  0  0  0
   -0.3807    0.7588   -0.2396 C   0  0  0  0  0  0  0  0  0  0  0  0
    0.5963   -0.1557   -0.7923 N   0  0  0  0  0  0  0  0  0  0  0  0
    1.9706    0.0254   -0.3793 C   0  0  0  0  0  0  0  0  0  0  0  0
    2.9464   -0.3094   -1.5219 C   0  0  0  0  0  0  0  0  0  0  0  0
    4.3642   -0.0627   -1.0983 C   0  0  0  0  0  0  0  0  0  0  0  0
    4.9970    1.1404   -1.3710 C   0  0  0  0  0  0  0  0  0  0  0  0
    6.3076    1.3615   -0.9760 C   0  0  0  0  0  0  0  0  0  0  0  0
    7.0138    0.3830   -0.2909 C   0  0  0  0  0  0  0  0  0  0  0  0
    8.2929    0.4802    0.1239 O   0  0  0  0  0  0  0  0  0  0  0  0
    9.0227    1.6483   -0.1697 C   0  0  0  0  0  0  0  0  0  0  0  0
    6.3683   -0.8474    0.0121 C   0  0  0  0  0  0  0  0  0  0  0  0
    7.1204   -1.7407    0.6883 O   0  0  0  0  0  0  0  0  0  0  0  0
    6.5784   -3.0038    0.9899 C   0  0  0  0  0  0  0  0  0  0  0  0
    5.0591   -1.0454   -0.3967 C   0  0  0  0  0  0  0  0  0  0  0  0
    0.1627   -1.5319   -0.7757 C   0  0  0  0  0  0  0  0  0  0  0  0
   -4.3893    2.9674    0.5509 C   0  0  0  0  0  0  0  0  0  0  0  0
   -5.5019    2.4318    1.4459 C   0  0  0  0  0  0  0  0  0  0  0  0
   -3.7646    4.2183    1.1866 C   0  0  0  0  0  0  0  0  0  0  0  0
   -4.6708    0.7013   -1.3631 H   0  0  0  0  0  0  0  0  0  0  0  0
   -6.7089   -0.1699   -2.1800 H   0  0  0  0  0  0  0  0  0  0  0  0
   -6.7520   -1.6444   -3.1759 H   0  0  0  0  0  0  0  0  0  0  0  0
   -5.3047   -0.6102   -3.1965 H   0  0  0  0  0  0  0  0  0  0  0  0
   -5.1001   -4.0212    2.3642 H   0  0  0  0  0  0  0  0  0  0  0  0
   -5.1256   -5.2657    1.0903 H   0  0  0  0  0  0  0  0  0  0  0  0
   -3.5899   -4.4708    1.5179 H   0  0  0  0  0  0  0  0  0  0  0  0
   -3.4977   -2.2706    2.3796 H   0  0  0  0  0  0  0  0  0  0  0  0
   -2.7770    0.0424    2.4039 H   0  0  0  0  0  0  0  0  0  0  0  0
   -3.0767    2.4321   -1.6590 H   0  0  0  0  0  0  0  0  0  0  0  0
   -1.7903    3.1634   -0.7098 H   0  0  0  0  0  0  0  0  0  0  0  0
   -2.0261    0.2385   -1.5297 H   0  0  0  0  0  0  0  0  0  0  0  0
   -0.9219    1.4408   -2.1935 H   0  0  0  0  0  0  0  0  0  0  0  0
   -1.5377    1.9255    2.0714 H   0  0  0  0  0  0  0  0  0  0  0  0
    0.1295    1.6723    0.0756 H   0  0  0  0  0  0  0  0  0  0  0  0
    2.2144   -0.5966    0.4967 H   0  0  0  0  0  0  0  0  0  0  0  0
    2.1249    1.0702   -0.1015 H   0  0  0  0  0  0  0  0  0  0  0  0
    2.6942    0.3129   -2.3806 H   0  0  0  0  0  0  0  0  0  0  0  0
    2.8277   -1.3541   -1.8090 H   0  0  0  0  0  0  0  0  0  0  0  0
    4.4717    1.9137   -1.9103 H   0  0  0  0  0  0  0  0  0  0  0  0
    6.7760    2.3026   -1.2143 H   0  0  0  0  0  0  0  0  0  0  0  0
    8.5755    2.5298    0.2998 H   0  0  0  0  0  0  0  0  0  0  0  0
    9.1020    1.8100   -1.2491 H   0  0  0  0  0  0  0  0  0  0  0  0
   10.0158    1.4840    0.2443 H   0  0  0  0  0  0  0  0  0  0  0  0
    7.3684   -3.5460    1.5061 H   0  0  0  0  0  0  0  0  0  0  0  0
    5.7076   -2.9205    1.6482 H   0  0  0  0  0  0  0  0  0  0  0  0
    6.2995   -3.5474    0.0820 H   0  0  0  0  0  0  0  0  0  0  0  0
    4.5629   -1.9794   -0.1846 H   0  0  0  0  0  0  0  0  0  0  0  0
   -0.8356   -1.6070   -1.2008 H   0  0  0  0  0  0  0  0  0  0  0  0
    0.1378   -1.9438    0.2459 H   0  0  0  0  0  0  0  0  0  0  0  0
    0.8363   -2.1383   -1.3778 H   0  0  0  0  0  0  0  0  0  0  0  0
   -4.7963    3.1898   -0.4353 H   0  0  0  0  0  0  0  0  0  0  0  0
   -5.1180    2.1921    2.4346 H   0  0  0  0  0  0  0  0  0  0  0  0
   -5.9430    1.5329    1.0264 H   0  0  0  0  0  0  0  0  0  0  0  0
   -6.2863    3.1781    1.5477 H   0  0  0  0  0  0  0  0  0  0  0  0
   -4.4671    4.7597    1.8221 H   0  0  0  0  0  0  0  0  0  0  0  0
   -3.3742    4.9115    0.4325 H   0  0  0  0  0  0  0  0  0  0  0  0
   -0.8823    0.3139    0.6334 H   0  0  0  0  0  0  0  0  0  0  0  0
   -2.1977    4.2085    2.6688 H   0  0  0  0  0  0  0  0  0  0  0  0
  1  2  4  0  0  0  0
  2  3  1  0  0  0  0
  3  4  1  0  0  0  0
  4  5  4  0  0  0  0
  5  6  4  0  0  0  0
  6  7  1  0  0  0  0
  7  8  1  0  0  0  0
  6  9  4  0  0  0  0
  9 10  1  0  0  0  0
 10 11  1  0  0  0  0
  9 12  4  0  0  0  0
  4 13  4  0  0  0  0
 12 13  4  0  0  0  0
  3 14  1  0  0  0  0
 14 15  1  0  0  0  0
 15 16  1  0  0  0  0
 16 17  1  0  0  0  0
 17 18  1  0  0  0  0
 18 19  1  0  0  0  0
 19 20  1  0  0  0  0
 20 21  4  0  0  0  0
 21 22  4  0  0  0  0
 22 23  4  0  0  0  0
 23 24  1  0  0  0  0
 24 25  1  0  0  0  0
 23 26  4  0  0  0  0
 26 27  1  0  0  0  0
 27 28  1  0  0  0  0
 20 29  4  0  0  0  0
 26 29  4  0  0  0  0
 17 30  1  0  0  0  0
  3 31  1  0  0  0  0
 31 32  1  0  0  0  0
  1 33  1  0  0  0  0
 31 33  1  0  0  0  0
  5 34  1  0  0  0  0
  8 35  1  0  0  0  0
  8 36  1  0  0  0  0
  8 37  1  0  0  0  0
 11 38  1  0  0  0  0
 11 39  1  0  0  0  0
 11 40  1  0  0  0  0
 12 41  1  0  0  0  0
 13 42  1  0  0  0  0
 14 43  1  0  0  0  0
 14 44  1  0  0  0  0
 15 45  1  0  0  0  0
 15 46  1  0  0  0  0
  2 47  1  0  0  0  0
 16 48  1  0  0  0  0
 18 49  1  0  0  0  0
 18 50  1  0  0  0  0
 19 51  1  0  0  0  0
 19 52  1  0  0  0  0
 21 53  1  0  0  0  0
 22 54  1  0  0  0  0
 25 55  1  0  0  0  0
 25 56  1  0  0  0  0
 25 57  1  0  0  0  0
 28 58  1  0  0  0  0
 28 59  1  0  0  0  0
 28 60  1  0  0  0  0
 29 61  1  0  0  0  0
 30 62  1  0  0  0  0
 30 63  1  0  0  0  0
 30 64  1  0  0  0  0
 31 65  1  0  0  0  0
 32 66  1  0  0  0  0
 32 67  1  0  0  0  0
 32 68  1  0  0  0  0
 33 69  1  0  0  0  0
 33 70  1  0  0  0  0
 16 71  1  0  0  0  0
  1 72  1  0  0  0  0
M  CHG  1   1   1
M  END
