 xtb: 6.6.1 (8d0f1dd)
          04062411133D

 72 72  0     0  0            999 V2000
   -1.6724    2.7164    2.1329 N   0  0  0  0  0  0  0  0  0  0  0  0
   -1.7111    1.9093    1.1809 C   0  0  0  0  0  0  0  0  0  0  0  0
   -2.8575    1.7812    0.2149 C   0  0  0  0  0  0  0  0  0  0  0  0
   -3.4860    0.4037    0.3517 C   0  0  0  0  0  0  0  0  0  0  0  0
   -4.4081   -0.0358   -0.6004 C   0  0  0  0  0  0  0  0  0  0  0  0
   -5.0201   -1.2741   -0.4982 C   0  0  0  0  0  0  0  0  0  0  0  0
   -5.9217   -1.7715   -1.3685 O   0  0  0  0  0  0  0  0  0  0  0  0
   -6.3787   -0.9631   -2.4272 C   0  0  0  0  0  0  0  0  0  0  0  0
   -4.7004   -2.1250    0.5952 C   0  0  0  0  0  0  0  0  0  0  0  0
   -5.3339   -3.3137    0.6074 O   0  0  0  0  0  0  0  0  0  0  0  0
   -5.1211   -4.1954    1.6850 C   0  0  0  0  0  0  0  0  0  0  0  0
   -3.7920   -1.6783    1.5419 C   0  0  0  0  0  0  0  0  0  0  0  0
   -3.1954   -0.4295    1.4215 C   0  0  0  0  0  0  0  0  0  0  0  0
   -2.2398    1.9550   -1.1991 C   0  0  0  0  0  0  0  0  0  0  0  0
   -1.4545    0.7358   -1.7136 C   0  0  0  0  0  0  0  0  0  0  0  0
   -0.1560    0.5421   -1.0300 C   0  0  0  0  0  0  0  0  0  0  0  0
    0.3129   -0.6008   -0.5792 N   0  0  0  0  0  0  0  0  0  0  0  0
    1.7085   -0.7212   -0.1314 C   0  0  0  0  0  0  0  0  0  0  0  0
    2.4773   -1.6072   -1.0285 C   0  0  0  0  0  0  0  0  0  0  0  0
    4.5748    1.3234   -0.6279 C   0  0  0  0  0  0  0  0  0  0  0  0
    5.4005    2.3983   -0.4779 C   0  0  0  0  0  0  0  0  0  0  0  0
    6.7322    2.1127   -0.1677 C   0  0  0  0  0  0  0  0  0  0  0  0
    7.1659    0.8018   -0.0156 C   0  0  0  0  0  0  0  0  0  0  0  0
    8.4234    0.4274    0.2968 O   0  0  0  0  0  0  0  0  0  0  0  0
    9.4106    1.4151    0.4854 C   0  0  0  0  0  0  0  0  0  0  0  0
    6.2534   -0.2802   -0.1879 C   0  0  0  0  0  0  0  0  0  0  0  0
    6.7608   -1.5131   -0.0141 O   0  0  0  0  0  0  0  0  0  0  0  0
    5.9048   -2.6266   -0.1102 C   0  0  0  0  0  0  0  0  0  0  0  0
    4.9307    0.0168   -0.5132 C   0  0  0  0  0  0  0  0  0  0  0  0
   -0.4646   -1.8170   -0.5968 C   0  0  0  0  0  0  0  0  0  0  0  0
   -3.9730    2.8454    0.4376 C   0  0  0  0  0  0  0  0  0  0  0  0
   -4.6526    2.6660    1.7930 C   0  0  0  0  0  0  0  0  0  0  0  0
   -3.4728    4.2804    0.2983 C   0  0  0  0  0  0  0  0  0  0  0  0
   -4.6604    0.6075   -1.4270 H   0  0  0  0  0  0  0  0  0  0  0  0
   -6.8407   -0.0427   -2.0577 H   0  0  0  0  0  0  0  0  0  0  0  0
   -7.1272   -1.5583   -2.9463 H   0  0  0  0  0  0  0  0  0  0  0  0
   -5.5706   -0.7148   -3.1231 H   0  0  0  0  0  0  0  0  0  0  0  0
   -5.4198   -3.7456    2.6365 H   0  0  0  0  0  0  0  0  0  0  0  0
   -5.7492   -5.0604    1.4818 H   0  0  0  0  0  0  0  0  0  0  0  0
   -4.0751   -4.5134    1.7435 H   0  0  0  0  0  0  0  0  0  0  0  0
   -3.5483   -2.2922    2.3937 H   0  0  0  0  0  0  0  0  0  0  0  0
   -2.5164   -0.1041    2.1944 H   0  0  0  0  0  0  0  0  0  0  0  0
   -3.0418    2.1624   -1.9067 H   0  0  0  0  0  0  0  0  0  0  0  0
   -1.5802    2.8237   -1.1869 H   0  0  0  0  0  0  0  0  0  0  0  0
   -2.0769   -0.1554   -1.6556 H   0  0  0  0  0  0  0  0  0  0  0  0
   -1.2349    0.9252   -2.7720 H   0  0  0  0  0  0  0  0  0  0  0  0
   -0.8790    1.2301    0.9183 H   0  0  0  0  0  0  0  0  0  0  0  0
    0.5136    1.3904   -0.9943 H   0  0  0  0  0  0  0  0  0  0  0  0
    1.7010   -1.1077    0.8919 H   0  0  0  0  0  0  0  0  0  0  0  0
    2.1314    0.2919   -0.1199 H   0  0  0  0  0  0  0  0  0  0  0  0
    2.4821   -1.3705   -2.0776 H   0  0  0  0  0  0  0  0  0  0  0  0
    2.6267   -2.6373   -0.7623 H   0  0  0  0  0  0  0  0  0  0  0  0
    5.0719    3.4184   -0.5902 H   0  0  0  0  0  0  0  0  0  0  0  0
    7.4192    2.9343   -0.0445 H   0  0  0  0  0  0  0  0  0  0  0  0
    9.1563    2.0830    1.3141 H   0  0  0  0  0  0  0  0  0  0  0  0
    9.5684    2.0027   -0.4241 H   0  0  0  0  0  0  0  0  0  0  0  0
   10.3222    0.8717    0.7264 H   0  0  0  0  0  0  0  0  0  0  0  0
    6.5221   -3.4925    0.1224 H   0  0  0  0  0  0  0  0  0  0  0  0
    5.0841   -2.5591    0.6114 H   0  0  0  0  0  0  0  0  0  0  0  0
    5.4964   -2.7310   -1.1206 H   0  0  0  0  0  0  0  0  0  0  0  0
    4.1858   -0.7841   -0.6826 H   0  0  0  0  0  0  0  0  0  0  0  0
   -0.6701   -2.1452   -1.6177 H   0  0  0  0  0  0  0  0  0  0  0  0
   -1.4136   -1.6672   -0.0763 H   0  0  0  0  0  0  0  0  0  0  0  0
    0.0956   -2.6000   -0.0914 H   0  0  0  0  0  0  0  0  0  0  0  0
   -4.7252    2.6712   -0.3405 H   0  0  0  0  0  0  0  0  0  0  0  0
   -3.9402    2.8406    2.5929 H   0  0  0  0  0  0  0  0  0  0  0  0
   -5.0645    1.6652    1.8976 H   0  0  0  0  0  0  0  0  0  0  0  0
   -5.4643    3.3818    1.8909 H   0  0  0  0  0  0  0  0  0  0  0  0
   -2.7109    4.4870    1.0433 H   0  0  0  0  0  0  0  0  0  0  0  0
   -3.0699    4.4770   -0.6915 H   0  0  0  0  0  0  0  0  0  0  0  0
   -4.3020    4.9637    0.4614 H   0  0  0  0  0  0  0  0  0  0  0  0
   -0.8335    2.7392    2.7040 H   0  0  0  0  0  0  0  0  0  0  0  0
  1  2  2  0  0  0  0
  2  3  1  0  0  0  0
  3  4  1  0  0  0  0
  4  5  4  0  0  0  0
  5  6  4  0  0  0  0
  6  7  1  0  0  0  0
  7  8  1  0  0  0  0
  6  9  4  0  0  0  0
  9 10  1  0  0  0  0
 10 11  1  0  0  0  0
  9 12  4  0  0  0  0
  4 13  4  0  0  0  0
 12 13  4  0  0  0  0
  3 14  1  0  0  0  0
 14 15  1  0  0  0  0
 15 16  1  0  0  0  0
 16 17  4  0  0  0  0
 17 18  1  0  0  0  0
 18 19  1  0  0  0  0
 20 21  4  0  0  0  0
 21 22  4  0  0  0  0
 22 23  4  0  0  0  0
 23 24  1  0  0  0  0
 24 25  1  0  0  0  0
 23 26  4  0  0  0  0
 26 27  1  0  0  0  0
 27 28  1  0  0  0  0
 20 29  4  0  0  0  0
 26 29  4  0  0  0  0
 17 30  1  0  0  0  0
  3 31  1  0  0  0  0
 31 32  1  0  0  0  0
 31 33  1  0  0  0  0
  5 34  1  0  0  0  0
  8 35  1  0  0  0  0
  8 36  1  0  0  0  0
  8 37  1  0  0  0  0
 11 38  1  0  0  0  0
 11 39  1  0  0  0  0
 11 40  1  0  0  0  0
 12 41  1  0  0  0  0
 13 42  1  0  0  0  0
 14 43  1  0  0  0  0
 14 44  1  0  0  0  0
 15 45  1  0  0  0  0
 15 46  1  0  0  0  0
  2 47  1  0  0  0  0
 16 48  1  0  0  0  0
 18 49  1  0  0  0  0
 18 50  1  0  0  0  0
 19 51  1  0  0  0  0
 19 52  1  0  0  0  0
 21 53  1  0  0  0  0
 22 54  1  0  0  0  0
 25 55  1  0  0  0  0
 25 56  1  0  0  0  0
 25 57  1  0  0  0  0
 28 58  1  0  0  0  0
 28 59  1  0  0  0  0
 28 60  1  0  0  0  0
 29 61  1  0  0  0  0
 30 62  1  0  0  0  0
 30 63  1  0  0  0  0
 30 64  1  0  0  0  0
 31 65  1  0  0  0  0
 32 66  1  0  0  0  0
 32 67  1  0  0  0  0
 32 68  1  0  0  0  0
 33 69  1  0  0  0  0
 33 70  1  0  0  0  0
 33 71  1  0  0  0  0
  1 72  1  0  0  0  0
M  CHG  1   1   1
M  END
