  25
 
 C          3.2178616434        1.1359151465        0.0183705926
 N          2.2703480979        0.0519998289        0.0003827953
 C          2.5416722103       -1.2397166841       -0.0083418830
 N          1.3936782645       -1.9508826790       -0.0085034712
 C          0.3526963402       -1.0674896430        0.0005991729
 C          0.9075995901        0.2006975090        0.0066359017
 C          0.0759023526        1.3986429450       -0.0028482704
 O          0.4871507682        2.5316834666       -0.0172576722
 N         -1.2722150023        1.0666693966        0.0016548023
 C         -2.2322998150        2.1665624533       -0.0024517203
 C         -1.8487293154       -0.1917927620        0.0049613595
 O         -3.0327303025       -0.3610353813        0.0085858376
 N         -0.9659911167       -1.3006063184        0.0017470163
 C         -1.5203065558       -2.6407666039       -0.0023903319
 H          3.7148028518        1.1858998486        0.9880318397
 H          3.9707941509        0.9938319799       -0.7554341637
 H          2.6832103691        2.0705106858       -0.1506717954
 H          3.5246936791       -1.6698904033       -0.0152363912
 H         -1.6767242904        3.1003911161        0.0048633969
 H         -2.8575579227        2.1054781332       -0.8918533700
 H         -2.8711973326        2.0985815972        0.8766114454
 H         -1.2058910808       -3.1876800721        0.8866321592
 H         -1.2198203255       -3.1767850551       -0.9028806981
 H         -2.6053140217       -2.5425591688        0.0064995296
 H          1.3287982774       -2.9594207941       -0.0165344637
