 xtb: 6.6.1 (8d0f1dd)
          06052420003D

 25 26  0     0  0            999 V2000
    2.8833    1.1325    0.1589 C   0  0  0  0  0  0  0  0  0  0  0  0
    1.9460    0.0328   -0.0028 N   0  0  0  0  0  0  0  0  0  0  0  0
    2.4492   -1.1819   -0.1134 C   0  0  0  0  0  0  0  0  0  0  0  0
    1.7891   -2.3735   -0.2136 N   0  0  0  0  0  0  0  0  0  0  0  0
    0.5069   -2.7713   -0.1241 C   0  0  0  0  0  0  0  0  0  0  0  0
    0.5807    0.3161    0.0020 C   0  0  0  0  0  0  0  0  0  0  0  0
   -0.0111    1.6565   -0.0197 C   0  0  0  0  0  0  0  0  0  0  0  0
    0.4926    2.7569   -0.0484 O   0  0  0  0  0  0  0  0  0  0  0  0
   -1.3620    1.4313   -0.0045 N   0  0  0  0  0  0  0  0  0  0  0  0
   -2.4213    2.3946   -0.0552 C   0  0  0  0  0  0  0  0  0  0  0  0
   -0.4823   -0.5693    0.0108 C   0  0  0  0  0  0  0  0  0  0  0  0
   -1.6598    0.0902    0.0147 O   0  0  0  0  0  0  0  0  0  0  0  0
   -0.5303   -1.9522    0.0039 N   0  0  0  0  0  0  0  0  0  0  0  0
   -1.8353   -2.6003    0.0991 C   0  0  0  0  0  0  0  0  0  0  0  0
    3.3254    1.1028    1.1562 H   0  0  0  0  0  0  0  0  0  0  0  0
    3.6771    1.0630   -0.5835 H   0  0  0  0  0  0  0  0  0  0  0  0
    2.3644    2.0828    0.0367 H   0  0  0  0  0  0  0  0  0  0  0  0
    3.5281   -1.2473   -0.1193 H   0  0  0  0  0  0  0  0  0  0  0  0
   -1.9386    3.3708   -0.0710 H   0  0  0  0  0  0  0  0  0  0  0  0
   -3.0217    2.2579   -0.9570 H   0  0  0  0  0  0  0  0  0  0  0  0
   -3.0624    2.3054    0.8245 H   0  0  0  0  0  0  0  0  0  0  0  0
   -1.8241   -3.3037    0.9307 H   0  0  0  0  0  0  0  0  0  0  0  0
   -2.0362   -3.1536   -0.8182 H   0  0  0  0  0  0  0  0  0  0  0  0
   -2.6152   -1.8601    0.2547 H   0  0  0  0  0  0  0  0  0  0  0  0
    2.4179   -3.1624   -0.3302 H   0  0  0  0  0  0  0  0  0  0  0  0
  1  2  1  0  0  0  0
  2  3  4  0  0  0  0
  3  4  1  0  0  0  0
  4  5  4  0  0  0  0
  2  6  1  0  0  0  0
  6  7  1  0  0  0  0
  7  8  2  0  0  0  0
  7  9  1  0  0  0  0
  9 10  1  0  0  0  0
  6 11  4  0  0  0  0
  9 12  1  0  0  0  0
 11 12  1  0  0  0  0
  5 13  4  0  0  0  0
 11 13  1  0  0  0  0
 13 14  1  0  0  0  0
  1 15  1  0  0  0  0
  1 16  1  0  0  0  0
  1 17  1  0  0  0  0
  3 18  1  0  0  0  0
 10 19  1  0  0  0  0
 10 20  1  0  0  0  0
 10 21  1  0  0  0  0
 14 22  1  0  0  0  0
 14 23  1  0  0  0  0
 14 24  1  0  0  0  0
  4 25  1  0  0  0  0
M  CHG  1   1   1
M  END
