 xtb: 6.6.1 (8d0f1dd)
          06052420003D

 25 24  0     0  0            999 V2000
    3.0065    1.6654   -0.2169 C   0  0  0  0  0  0  0  0  0  0  0  0
    2.3474    0.4462   -0.4419 N   0  0  0  0  0  0  0  0  0  0  0  0
    1.7072   -2.6949    1.5939 C   0  0  0  0  0  0  0  0  0  0  0  0
    0.6466   -2.1714    1.1082 N   0  0  0  0  0  0  0  0  0  0  0  0
    0.4566   -1.0855    0.1849 C   0  0  0  0  0  0  0  0  0  0  0  0
    1.4049   -0.1992   -0.0884 C   0  0  0  0  0  0  0  0  0  0  0  0
   -0.6534    2.2132   -0.9191 C   0  0  0  0  0  0  0  0  0  0  0  0
   -0.2186    2.9415   -1.7003 O   0  0  0  0  0  0  0  0  0  0  0  0
   -1.0327    1.2749   -0.1726 N   0  0  0  0  0  0  0  0  0  0  0  0
   -1.4923    1.4627    1.2095 C   0  0  0  0  0  0  0  0  0  0  0  0
   -1.5403   -0.0387   -0.8024 C   0  0  0  0  0  0  0  0  0  0  0  0
   -2.5283    0.0067   -1.4612 O   0  0  0  0  0  0  0  0  0  0  0  0
   -0.7921   -1.0988   -0.4913 N   0  0  0  0  0  0  0  0  0  0  0  0
   -1.2492   -2.3826   -1.0290 C   0  0  0  0  0  0  0  0  0  0  0  0
    2.6235    2.2201    0.6429 H   0  0  0  0  0  0  0  0  0  0  0  0
    4.0659    1.4454   -0.0767 H   0  0  0  0  0  0  0  0  0  0  0  0
    2.9167    2.2675   -1.1234 H   0  0  0  0  0  0  0  0  0  0  0  0
    2.6669   -2.2807    1.2968 H   0  0  0  0  0  0  0  0  0  0  0  0
   -1.1711    2.4320    1.5821 H   0  0  0  0  0  0  0  0  0  0  0  0
   -2.5827    1.4064    1.2385 H   0  0  0  0  0  0  0  0  0  0  0  0
   -1.0693    0.6749    1.8322 H   0  0  0  0  0  0  0  0  0  0  0  0
   -1.9379   -2.8721   -0.3390 H   0  0  0  0  0  0  0  0  0  0  0  0
   -0.3925   -3.0247   -1.2190 H   0  0  0  0  0  0  0  0  0  0  0  0
   -1.7792   -2.2043   -1.9637 H   0  0  0  0  0  0  0  0  0  0  0  0
   -0.2423   -2.5858    1.3871 H   0  0  0  0  0  0  0  0  0  0  0  0
  1  2  1  0  0  0  0
  3  4  2  0  0  0  0
  4  5  1  0  0  0  0
  2  6  2  0  0  0  0
  5  6  2  0  0  0  0
  7  8  2  0  0  0  0
  7  9  2  0  0  0  0
  9 10  1  0  0  0  0
  9 11  1  0  0  0  0
 11 12  2  0  0  0  0
  5 13  1  0  0  0  0
 11 13  4  0  0  0  0
 13 14  1  0  0  0  0
  1 15  1  0  0  0  0
  1 16  1  0  0  0  0
  1 17  1  0  0  0  0
  3 18  1  0  0  0  0
 10 19  1  0  0  0  0
 10 20  1  0  0  0  0
 10 21  1  0  0  0  0
 14 22  1  0  0  0  0
 14 23  1  0  0  0  0
 14 24  1  0  0  0  0
  4 25  1  0  0  0  0
M  CHG  1   1   1
M  END
