 xtb: 6.6.1 (8d0f1dd)
          04062411143D

 72 72  0     0  0            999 V2000
   -2.0676    2.8608    2.2842 N   0  0  0  0  0  0  0  0  0  0  0  0
   -1.9904    2.1033    1.2937 C   0  0  0  0  0  0  0  0  0  0  0  0
   -3.0840    1.9008    0.2818 C   0  0  0  0  0  0  0  0  0  0  0  0
   -3.5874    0.4673    0.3578 C   0  0  0  0  0  0  0  0  0  0  0  0
   -4.4448   -0.0185   -0.6318 C   0  0  0  0  0  0  0  0  0  0  0  0
   -4.9454   -1.3084   -0.5866 C   0  0  0  0  0  0  0  0  0  0  0  0
   -5.7826   -1.8518   -1.4959 O   0  0  0  0  0  0  0  0  0  0  0  0
   -6.2879   -1.0457   -2.5337 C   0  0  0  0  0  0  0  0  0  0  0  0
   -4.5746   -2.1657    0.4837 C   0  0  0  0  0  0  0  0  0  0  0  0
   -5.1047   -3.4056    0.4436 O   0  0  0  0  0  0  0  0  0  0  0  0
   -4.8494   -4.2936    1.5063 C   0  0  0  0  0  0  0  0  0  0  0  0
   -3.7254   -1.6773    1.4633 C   0  0  0  0  0  0  0  0  0  0  0  0
   -3.2410   -0.3764    1.4010 C   0  0  0  0  0  0  0  0  0  0  0  0
   -2.4341    2.1604   -1.1027 C   0  0  0  0  0  0  0  0  0  0  0  0
   -1.4944    1.0409   -1.5852 C   0  0  0  0  0  0  0  0  0  0  0  0
   -0.2011    1.0049   -0.8677 C   0  0  0  0  0  0  0  0  0  0  0  0
    0.4117   -0.0924   -0.4262 N   0  0  0  0  0  0  0  0  0  0  0  0
    1.7905   -0.0300   -0.0067 C   0  0  0  0  0  0  0  0  0  0  0  0
    2.7464   -0.5071   -1.1238 C   0  0  0  0  0  0  0  0  0  0  0  0
    4.1611   -0.1638   -0.7815 C   0  0  0  0  0  0  0  0  0  0  0  0
    6.4775    2.6325   -1.1198 C   0  0  0  0  0  0  0  0  0  0  0  0
    6.6497    1.5095   -0.7073 C   0  0  0  0  0  0  0  0  0  0  0  0
    7.1501    0.3083   -0.1798 C   0  0  0  0  0  0  0  0  0  0  0  0
    8.4533    0.2570    0.1845 O   0  0  0  0  0  0  0  0  0  0  0  0
    9.2690    1.3794   -0.0568 C   0  0  0  0  0  0  0  0  0  0  0  0
    6.4238   -0.8609    0.0095 C   0  0  0  0  0  0  0  0  0  0  0  0
    7.1866   -1.8463    0.5540 O   0  0  0  0  0  0  0  0  0  0  0  0
    6.6925   -3.1474    0.7701 C   0  0  0  0  0  0  0  0  0  0  0  0
    5.0477   -1.0677   -0.3333 C   0  0  0  0  0  0  0  0  0  0  0  0
   -0.2028   -1.3948   -0.5073 C   0  0  0  0  0  0  0  0  0  0  0  0
   -4.2977    2.8548    0.4852 C   0  0  0  0  0  0  0  0  0  0  0  0
   -5.0091    2.5769    1.8073 C   0  0  0  0  0  0  0  0  0  0  0  0
   -3.9209    4.3315    0.4019 C   0  0  0  0  0  0  0  0  0  0  0  0
   -4.7353    0.6282   -1.4429 H   0  0  0  0  0  0  0  0  0  0  0  0
   -6.8305   -0.1802   -2.1414 H   0  0  0  0  0  0  0  0  0  0  0  0
   -6.9764   -1.6809   -3.0874 H   0  0  0  0  0  0  0  0  0  0  0  0
   -5.4922   -0.7065   -3.2053 H   0  0  0  0  0  0  0  0  0  0  0  0
   -5.2076   -3.8923    2.4590 H   0  0  0  0  0  0  0  0  0  0  0  0
   -5.4007   -5.2008    1.2671 H   0  0  0  0  0  0  0  0  0  0  0  0
   -3.7832   -4.5287    1.5866 H   0  0  0  0  0  0  0  0  0  0  0  0
   -3.4420   -2.2987    2.2972 H   0  0  0  0  0  0  0  0  0  0  0  0
   -2.6073   -0.0225    2.1994 H   0  0  0  0  0  0  0  0  0  0  0  0
   -3.2250    2.2812   -1.8423 H   0  0  0  0  0  0  0  0  0  0  0  0
   -1.8780    3.0978   -1.0605 H   0  0  0  0  0  0  0  0  0  0  0  0
   -2.0095    0.0831   -1.5364 H   0  0  0  0  0  0  0  0  0  0  0  0
   -1.2754    1.2484   -2.6412 H   0  0  0  0  0  0  0  0  0  0  0  0
   -1.0814    1.5312    1.0273 H   0  0  0  0  0  0  0  0  0  0  0  0
    0.3612    1.9247   -0.8100 H   0  0  0  0  0  0  0  0  0  0  0  0
    1.9287   -0.6519    0.8810 H   0  0  0  0  0  0  0  0  0  0  0  0
    2.0381    1.0004    0.2544 H   0  0  0  0  0  0  0  0  0  0  0  0
    2.4644    0.0034   -2.0517 H   0  0  0  0  0  0  0  0  0  0  0  0
    2.6321   -1.5845   -1.2700 H   0  0  0  0  0  0  0  0  0  0  0  0
    6.2372    3.5774   -1.5083 H   0  0  0  0  0  0  0  0  0  0  0  0
    4.4256    0.8766   -0.8749 H   0  0  0  0  0  0  0  0  0  0  0  0
    8.9181    2.2546    0.4974 H   0  0  0  0  0  0  0  0  0  0  0  0
    9.3009    1.6254   -1.1224 H   0  0  0  0  0  0  0  0  0  0  0  0
   10.2624    1.1022    0.2855 H   0  0  0  0  0  0  0  0  0  0  0  0
    7.5422   -3.6982    1.1764 H   0  0  0  0  0  0  0  0  0  0  0  0
    5.8739   -3.1627    1.4989 H   0  0  0  0  0  0  0  0  0  0  0  0
    6.3707   -3.6252   -0.1599 H   0  0  0  0  0  0  0  0  0  0  0  0
    4.7000   -2.0876   -0.2409 H   0  0  0  0  0  0  0  0  0  0  0  0
   -0.3169   -1.7163   -1.5449 H   0  0  0  0  0  0  0  0  0  0  0  0
   -1.1872   -1.3812   -0.0347 H   0  0  0  0  0  0  0  0  0  0  0  0
    0.4210   -2.1164    0.0136 H   0  0  0  0  0  0  0  0  0  0  0  0
   -5.0016    2.6385   -0.3268 H   0  0  0  0  0  0  0  0  0  0  0  0
   -4.3495    2.8025    2.6390 H   0  0  0  0  0  0  0  0  0  0  0  0
   -5.3203    1.5373    1.8747 H   0  0  0  0  0  0  0  0  0  0  0  0
   -5.8927    3.2047    1.8851 H   0  0  0  0  0  0  0  0  0  0  0  0
   -3.1936    4.5783    1.1691 H   0  0  0  0  0  0  0  0  0  0  0  0
   -3.5183    4.5935   -0.5730 H   0  0  0  0  0  0  0  0  0  0  0  0
   -4.8085    4.9360    0.5683 H   0  0  0  0  0  0  0  0  0  0  0  0
   -1.2521    2.9388    2.8840 H   0  0  0  0  0  0  0  0  0  0  0  0
  1  2  2  0  0  0  0
  2  3  1  0  0  0  0
  3  4  1  0  0  0  0
  4  5  4  0  0  0  0
  5  6  4  0  0  0  0
  6  7  1  0  0  0  0
  7  8  1  0  0  0  0
  6  9  4  0  0  0  0
  9 10  1  0  0  0  0
 10 11  1  0  0  0  0
  9 12  4  0  0  0  0
  4 13  4  0  0  0  0
 12 13  4  0  0  0  0
  3 14  1  0  0  0  0
 14 15  1  0  0  0  0
 15 16  1  0  0  0  0
 16 17  4  0  0  0  0
 17 18  1  0  0  0  0
 18 19  1  0  0  0  0
 19 20  1  0  0  0  0
 21 22  3  0  0  0  0
 22 23  1  0  0  0  0
 23 24  1  0  0  0  0
 24 25  1  0  0  0  0
 23 26  4  0  0  0  0
 26 27  1  0  0  0  0
 27 28  1  0  0  0  0
 20 29  2  0  0  0  0
 26 29  1  0  0  0  0
 17 30  1  0  0  0  0
  3 31  1  0  0  0  0
 31 32  1  0  0  0  0
 31 33  1  0  0  0  0
  5 34  1  0  0  0  0
  8 35  1  0  0  0  0
  8 36  1  0  0  0  0
  8 37  1  0  0  0  0
 11 38  1  0  0  0  0
 11 39  1  0  0  0  0
 11 40  1  0  0  0  0
 12 41  1  0  0  0  0
 13 42  1  0  0  0  0
 14 43  1  0  0  0  0
 14 44  1  0  0  0  0
 15 45  1  0  0  0  0
 15 46  1  0  0  0  0
  2 47  1  0  0  0  0
 16 48  1  0  0  0  0
 18 49  1  0  0  0  0
 18 50  1  0  0  0  0
 19 51  1  0  0  0  0
 19 52  1  0  0  0  0
 21 53  1  0  0  0  0
 20 54  1  0  0  0  0
 25 55  1  0  0  0  0
 25 56  1  0  0  0  0
 25 57  1  0  0  0  0
 28 58  1  0  0  0  0
 28 59  1  0  0  0  0
 28 60  1  0  0  0  0
 29 61  1  0  0  0  0
 30 62  1  0  0  0  0
 30 63  1  0  0  0  0
 30 64  1  0  0  0  0
 31 65  1  0  0  0  0
 32 66  1  0  0  0  0
 32 67  1  0  0  0  0
 32 68  1  0  0  0  0
 33 69  1  0  0  0  0
 33 70  1  0  0  0  0
 33 71  1  0  0  0  0
  1 72  1  0  0  0  0
M  CHG  1   1   1
M  END
