 xtb: 6.6.1 (8d0f1dd)
          04062411133D

 72 72  0     0  0            999 V2000
   -1.8861    2.9603    2.2444 N   0  0  0  0  0  0  0  0  0  0  0  0
   -1.8324    2.2179    1.2424 C   0  0  0  0  0  0  0  0  0  0  0  0
   -2.9772    1.9878    0.2935 C   0  0  0  0  0  0  0  0  0  0  0  0
   -3.3999    0.5299    0.3489 C   0  0  0  0  0  0  0  0  0  0  0  0
   -4.2861    0.0284   -0.6058 C   0  0  0  0  0  0  0  0  0  0  0  0
   -4.6992   -1.2948   -0.5851 C   0  0  0  0  0  0  0  0  0  0  0  0
   -5.5457   -1.8616   -1.4641 O   0  0  0  0  0  0  0  0  0  0  0  0
   -6.1360   -1.0745   -2.4722 C   0  0  0  0  0  0  0  0  0  0  0  0
   -4.2076   -2.1662    0.4289 C   0  0  0  0  0  0  0  0  0  0  0  0
   -4.6472   -3.4337    0.3626 O   0  0  0  0  0  0  0  0  0  0  0  0
   -4.2381   -4.3590    1.3441 C   0  0  0  0  0  0  0  0  0  0  0  0
   -3.3402   -1.6542    1.3836 C   0  0  0  0  0  0  0  0  0  0  0  0
   -2.9460   -0.3252    1.3441 C   0  0  0  0  0  0  0  0  0  0  0  0
   -2.4359    2.3398   -1.1182 C   0  0  0  0  0  0  0  0  0  0  0  0
   -1.5385    1.2703   -1.7697 C   0  0  0  0  0  0  0  0  0  0  0  0
   -0.2143    1.1082   -1.1198 C   0  0  0  0  0  0  0  0  0  0  0  0
    0.3170   -0.0389   -0.6971 N   0  0  0  0  0  0  0  0  0  0  0  0
    1.7145    0.0147   -0.2723 C   0  0  0  0  0  0  0  0  0  0  0  0
    2.6531   -0.0609   -1.4855 C   0  0  0  0  0  0  0  0  0  0  0  0
    4.0849    0.0229   -1.0354 C   0  0  0  0  0  0  0  0  0  0  0  0
    4.8424    1.1666   -1.2477 C   0  0  0  0  0  0  0  0  0  0  0  0
    6.1519    1.2433   -0.8005 C   0  0  0  0  0  0  0  0  0  0  0  0
    6.7338    0.1774   -0.1247 C   0  0  0  0  0  0  0  0  0  0  0  0
    7.9848    0.1440    0.3575 O   0  0  0  0  0  0  0  0  0  0  0  0
    8.8286    1.2588    0.1791 C   0  0  0  0  0  0  0  0  0  0  0  0
    5.9626   -1.0034    0.0975 C   0  0  0  0  0  0  0  0  0  0  0  0
    6.5909   -1.9860    0.7578 O   0  0  0  0  0  0  0  0  0  0  0  0
    5.9214   -3.2070    0.9840 C   0  0  0  0  0  0  0  0  0  0  0  0
    4.6569   -1.0554   -0.3684 C   0  0  0  0  0  0  0  0  0  0  0  0
   -0.2728   -1.2207   -0.6544 C   0  0  0  0  0  0  0  0  0  0  0  0
   -4.2228    2.8678    0.6156 C   0  0  0  0  0  0  0  0  0  0  0  0
   -4.8216    2.5158    1.9749 C   0  0  0  0  0  0  0  0  0  0  0  0
   -3.9354    4.3647    0.5525 C   0  0  0  0  0  0  0  0  0  0  0  0
   -4.6645    0.6834   -1.3733 H   0  0  0  0  0  0  0  0  0  0  0  0
   -6.7256   -0.2562   -2.0488 H   0  0  0  0  0  0  0  0  0  0  0  0
   -6.7943   -1.7476   -3.0181 H   0  0  0  0  0  0  0  0  0  0  0  0
   -5.3851   -0.6699   -3.1584 H   0  0  0  0  0  0  0  0  0  0  0  0
   -4.5507   -4.0453    2.3442 H   0  0  0  0  0  0  0  0  0  0  0  0
   -4.7322   -5.2940    1.0876 H   0  0  0  0  0  0  0  0  0  0  0  0
   -3.1537   -4.5047    1.3283 H   0  0  0  0  0  0  0  0  0  0  0  0
   -2.9669   -2.2855    2.1729 H   0  0  0  0  0  0  0  0  0  0  0  0
   -2.2883    0.0414    2.1163 H   0  0  0  0  0  0  0  0  0  0  0  0
   -3.2826    2.5109   -1.7827 H   0  0  0  0  0  0  0  0  0  0  0  0
   -1.8766    3.2740   -1.0522 H   0  0  0  0  0  0  0  0  0  0  0  0
   -2.0726    0.3239   -1.8198 H   0  0  0  0  0  0  0  0  0  0  0  0
   -1.3635    1.6058   -2.7996 H   0  0  0  0  0  0  0  0  0  0  0  0
   -0.9194    1.6881    0.9206 H   0  0  0  0  0  0  0  0  0  0  0  0
    0.4324    1.9714   -1.0936 H   0  0  0  0  0  0  0  0  0  0  0  0
    1.9243   -0.8341    0.3913 H   0  0  0  0  0  0  0  0  0  0  0  0
    1.8951    0.9420    0.2753 H   0  0  0  0  0  0  0  0  0  0  0  0
    2.4307    0.7543   -2.1763 H   0  0  0  0  0  0  0  0  0  0  0  0
    2.4822   -1.0074   -2.0024 H   0  0  0  0  0  0  0  0  0  0  0  0
    4.4161    2.0081   -1.7723 H   0  0  0  0  0  0  0  0  0  0  0  0
    6.7160    2.1434   -0.9824 H   0  0  0  0  0  0  0  0  0  0  0  0
    8.4269    2.1472    0.6753 H   0  0  0  0  0  0  0  0  0  0  0  0
    8.9883    1.4729   -0.8817 H   0  0  0  0  0  0  0  0  0  0  0  0
    9.7758    0.9848    0.6395 H   0  0  0  0  0  0  0  0  0  0  0  0
    6.6214   -3.8255    1.5431 H   0  0  0  0  0  0  0  0  0  0  0  0
    5.0067   -3.0658    1.5692 H   0  0  0  0  0  0  0  0  0  0  0  0
    5.6710   -3.7004    0.0401 H   0  0  0  0  0  0  0  0  0  0  0  0
    4.0538   -1.9351   -0.1875 H   0  0  0  0  0  0  0  0  0  0  0  0
    2.5690   -2.6226    1.0433 H   0  0  0  0  0  0  0  0  0  0  0  0
   -1.2917   -1.3455   -0.9613 H   0  0  0  0  0  0  0  0  0  0  0  0
    0.2728   -2.0641   -0.2810 H   0  0  0  0  0  0  0  0  0  0  0  0
   -4.9707    2.6339   -0.1510 H   0  0  0  0  0  0  0  0  0  0  0  0
   -4.1250    2.7737    2.7668 H   0  0  0  0  0  0  0  0  0  0  0  0
   -5.0548    1.4558    2.0412 H   0  0  0  0  0  0  0  0  0  0  0  0
   -5.7390    3.0788    2.1258 H   0  0  0  0  0  0  0  0  0  0  0  0
   -3.1882    4.6361    1.2920 H   0  0  0  0  0  0  0  0  0  0  0  0
   -3.5936    4.6732   -0.4315 H   0  0  0  0  0  0  0  0  0  0  0  0
   -4.8474    4.9124    0.7751 H   0  0  0  0  0  0  0  0  0  0  0  0
   -1.0492    3.0749    2.8066 H   0  0  0  0  0  0  0  0  0  0  0  0
  1  2  2  0  0  0  0
  2  3  1  0  0  0  0
  3  4  1  0  0  0  0
  4  5  4  0  0  0  0
  5  6  4  0  0  0  0
  6  7  1  0  0  0  0
  7  8  1  0  0  0  0
  6  9  4  0  0  0  0
  9 10  1  0  0  0  0
 10 11  1  0  0  0  0
  9 12  4  0  0  0  0
  4 13  4  0  0  0  0
 12 13  4  0  0  0  0
  3 14  1  0  0  0  0
 14 15  1  0  0  0  0
 15 16  1  0  0  0  0
 16 17  4  0  0  0  0
 17 18  1  0  0  0  0
 18 19  1  0  0  0  0
 19 20  1  0  0  0  0
 20 21  4  0  0  0  0
 21 22  4  0  0  0  0
 22 23  4  0  0  0  0
 23 24  1  0  0  0  0
 24 25  1  0  0  0  0
 23 26  1  0  0  0  0
 26 27  1  0  0  0  0
 27 28  1  0  0  0  0
 20 29  4  0  0  0  0
 26 29  4  0  0  0  0
 17 30  4  0  0  0  0
  3 31  1  0  0  0  0
 31 32  1  0  0  0  0
 31 33  1  0  0  0  0
  5 34  1  0  0  0  0
  8 35  1  0  0  0  0
  8 36  1  0  0  0  0
  8 37  1  0  0  0  0
 11 38  1  0  0  0  0
 11 39  1  0  0  0  0
 11 40  1  0  0  0  0
 12 41  1  0  0  0  0
 13 42  1  0  0  0  0
 14 43  1  0  0  0  0
 14 44  1  0  0  0  0
 15 45  1  0  0  0  0
 15 46  1  0  0  0  0
  2 47  1  0  0  0  0
 16 48  1  0  0  0  0
 18 49  1  0  0  0  0
 18 50  1  0  0  0  0
 19 51  1  0  0  0  0
 19 52  1  0  0  0  0
 21 53  1  0  0  0  0
 22 54  1  0  0  0  0
 25 55  1  0  0  0  0
 25 56  1  0  0  0  0
 25 57  1  0  0  0  0
 28 58  1  0  0  0  0
 28 59  1  0  0  0  0
 28 60  1  0  0  0  0
 29 61  1  0  0  0  0
 30 63  1  0  0  0  0
 30 64  1  0  0  0  0
 31 65  1  0  0  0  0
 32 66  1  0  0  0  0
 32 67  1  0  0  0  0
 32 68  1  0  0  0  0
 33 69  1  0  0  0  0
 33 70  1  0  0  0  0
 33 71  1  0  0  0  0
  1 72  1  0  0  0  0
M  CHG  1   1   1
M  END
