 xtb: 6.6.1 (8d0f1dd)
          04062411123D

 72 72  0     0  0            999 V2000
   -1.6773    2.6433    2.2704 N   0  0  0  0  0  0  0  0  0  0  0  0
   -2.3672    2.3287    1.4136 C   0  0  0  0  0  0  0  0  0  0  0  0
   -3.2447    1.9913    0.3102 C   0  0  0  0  0  0  0  0  0  0  0  0
   -3.7012    0.5458    0.4048 C   0  0  0  0  0  0  0  0  0  0  0  0
   -4.5636    0.0346   -0.5643 C   0  0  0  0  0  0  0  0  0  0  0  0
   -4.9898   -1.2842   -0.5251 C   0  0  0  0  0  0  0  0  0  0  0  0
   -5.8291   -1.8581   -1.4048 O   0  0  0  0  0  0  0  0  0  0  0  0
   -6.4100   -1.0778   -2.4237 C   0  0  0  0  0  0  0  0  0  0  0  0
   -4.5228   -2.1410    0.5137 C   0  0  0  0  0  0  0  0  0  0  0  0
   -4.9698   -3.4064    0.4603 O   0  0  0  0  0  0  0  0  0  0  0  0
   -4.5842   -4.3202    1.4614 C   0  0  0  0  0  0  0  0  0  0  0  0
   -3.6690   -1.6190    1.4755 C   0  0  0  0  0  0  0  0  0  0  0  0
   -3.2684   -0.2925    1.4241 C   0  0  0  0  0  0  0  0  0  0  0  0
   -2.4580    2.2260   -1.0080 C   0  0  0  0  0  0  0  0  0  0  0  0
   -1.4894    1.1037   -1.3836 C   0  0  0  0  0  0  0  0  0  0  0  0
   -0.3251    0.9663   -0.3988 C   0  0  0  0  0  0  0  0  0  0  0  0
    0.6207   -0.0379   -0.8207 N   0  0  0  0  0  0  0  0  0  0  0  0
    1.9854    0.1066   -0.3816 C   0  0  0  0  0  0  0  0  0  0  0  0
    2.9751   -0.3370   -1.4785 C   0  0  0  0  0  0  0  0  0  0  0  0
    4.3876   -0.1396   -1.0162 C   0  0  0  0  0  0  0  0  0  0  0  0
    5.0369    1.0733   -1.2174 C   0  0  0  0  0  0  0  0  0  0  0  0
    6.3309    1.2726   -0.7686 C   0  0  0  0  0  0  0  0  0  0  0  0
    7.0110    0.2615   -0.0990 C   0  0  0  0  0  0  0  0  0  0  0  0
    8.2604    0.3407    0.3804 O   0  0  0  0  0  0  0  0  0  0  0  0
    8.9880    1.5393    0.2335 C   0  0  0  0  0  0  0  0  0  0  0  0
    6.3551   -0.9876    0.1140 C   0  0  0  0  0  0  0  0  0  0  0  0
    7.0839   -1.9100    0.7625 O   0  0  0  0  0  0  0  0  0  0  0  0
    6.5365   -3.1842    1.0098 C   0  0  0  0  0  0  0  0  0  0  0  0
    5.0567   -1.1597   -0.3461 C   0  0  0  0  0  0  0  0  0  0  0  0
    0.1018   -1.3824   -0.8427 C   0  0  0  0  0  0  0  0  0  0  0  0
   -4.4773    2.9466    0.4060 C   0  0  0  0  0  0  0  0  0  0  0  0
   -5.2506    2.6840    1.6976 C   0  0  0  0  0  0  0  0  0  0  0  0
   -4.0747    4.4172    0.3298 C   0  0  0  0  0  0  0  0  0  0  0  0
   -4.9058    0.6755   -1.3602 H   0  0  0  0  0  0  0  0  0  0  0  0
   -6.9842   -0.2432   -2.0106 H   0  0  0  0  0  0  0  0  0  0  0  0
   -7.0813   -1.7476   -2.9571 H   0  0  0  0  0  0  0  0  0  0  0  0
   -5.6545   -0.6966   -3.1176 H   0  0  0  0  0  0  0  0  0  0  0  0
   -4.9210   -3.9959    2.4503 H   0  0  0  0  0  0  0  0  0  0  0  0
   -5.0714   -5.2586    1.2035 H   0  0  0  0  0  0  0  0  0  0  0  0
   -3.4996   -4.4658    1.4740 H   0  0  0  0  0  0  0  0  0  0  0  0
   -3.3137   -2.2402    2.2814 H   0  0  0  0  0  0  0  0  0  0  0  0
   -2.6200    0.0852    2.2000 H   0  0  0  0  0  0  0  0  0  0  0  0
   -3.1794    2.3404   -1.8179 H   0  0  0  0  0  0  0  0  0  0  0  0
   -1.9029    3.1613   -0.9217 H   0  0  0  0  0  0  0  0  0  0  0  0
   -2.0328    0.1608   -1.4478 H   0  0  0  0  0  0  0  0  0  0  0  0
   -1.0774    1.3220   -2.3701 H   0  0  0  0  0  0  0  0  0  0  0  0
   -0.7213    0.7209    0.5992 H   0  0  0  0  0  0  0  0  0  0  0  0
    0.1898    1.9259   -0.3254 H   0  0  0  0  0  0  0  0  0  0  0  0
    2.1775   -0.4777    0.5311 H   0  0  0  0  0  0  0  0  0  0  0  0
    2.1738    1.1566   -0.1511 H   0  0  0  0  0  0  0  0  0  0  0  0
    2.7851    0.2570   -2.3727 H   0  0  0  0  0  0  0  0  0  0  0  0
    2.8081   -1.3861   -1.7233 H   0  0  0  0  0  0  0  0  0  0  0  0
    4.5308    1.8707   -1.7390 H   0  0  0  0  0  0  0  0  0  0  0  0
    6.8098    2.2213   -0.9476 H   0  0  0  0  0  0  0  0  0  0  0  0
    8.4776    2.3784    0.7155 H   0  0  0  0  0  0  0  0  0  0  0  0
    9.1623    1.7733   -0.8211 H   0  0  0  0  0  0  0  0  0  0  0  0
    9.9424    1.3643    0.7271 H   0  0  0  0  0  0  0  0  0  0  0  0
    7.3164   -3.7427    1.5235 H   0  0  0  0  0  0  0  0  0  0  0  0
    5.6532   -3.1218    1.6522 H   0  0  0  0  0  0  0  0  0  0  0  0
    6.2777   -3.6965    0.0786 H   0  0  0  0  0  0  0  0  0  0  0  0
    4.5540   -2.1018   -0.1928 H   0  0  0  0  0  0  0  0  0  0  0  0
   -0.4754   -1.5480   -1.7530 H   0  0  0  0  0  0  0  0  0  0  0  0
   -0.5531   -1.5734    0.0163 H   0  0  0  0  0  0  0  0  0  0  0  0
    0.9154   -2.1004   -0.8279 H   0  0  0  0  0  0  0  0  0  0  0  0
   -5.1305    2.7219   -0.4436 H   0  0  0  0  0  0  0  0  0  0  0  0
   -4.6324    2.9060    2.5655 H   0  0  0  0  0  0  0  0  0  0  0  0
   -5.5747    1.6472    1.7599 H   0  0  0  0  0  0  0  0  0  0  0  0
   -6.1321    3.3197    1.7362 H   0  0  0  0  0  0  0  0  0  0  0  0
   -3.3668    4.6655    1.1181 H   0  0  0  0  0  0  0  0  0  0  0  0
   -3.6307    4.6644   -0.6308 H   0  0  0  0  0  0  0  0  0  0  0  0
   -4.9569    5.0401    0.4599 H   0  0  0  0  0  0  0  0  0  0  0  0
    0.6923    2.7382    3.5218 H   0  0  0  0  0  0  0  0  0  0  0  0
  1  2  3  0  0  0  0
  2  3  1  0  0  0  0
  3  4  1  0  0  0  0
  4  5  4  0  0  0  0
  5  6  4  0  0  0  0
  6  7  1  0  0  0  0
  7  8  1  0  0  0  0
  6  9  4  0  0  0  0
  9 10  1  0  0  0  0
 10 11  1  0  0  0  0
  9 12  4  0  0  0  0
  4 13  4  0  0  0  0
 12 13  4  0  0  0  0
  3 14  1  0  0  0  0
 14 15  1  0  0  0  0
 15 16  1  0  0  0  0
 16 17  1  0  0  0  0
 17 18  1  0  0  0  0
 18 19  1  0  0  0  0
 19 20  1  0  0  0  0
 20 21  4  0  0  0  0
 21 22  4  0  0  0  0
 22 23  4  0  0  0  0
 23 24  1  0  0  0  0
 24 25  1  0  0  0  0
 23 26  1  0  0  0  0
 26 27  1  0  0  0  0
 27 28  1  0  0  0  0
 20 29  4  0  0  0  0
 26 29  4  0  0  0  0
 17 30  1  0  0  0  0
  3 31  1  0  0  0  0
 31 32  1  0  0  0  0
 31 33  1  0  0  0  0
  5 34  1  0  0  0  0
  8 35  1  0  0  0  0
  8 36  1  0  0  0  0
  8 37  1  0  0  0  0
 11 38  1  0  0  0  0
 11 39  1  0  0  0  0
 11 40  1  0  0  0  0
 12 41  1  0  0  0  0
 13 42  1  0  0  0  0
 14 43  1  0  0  0  0
 14 44  1  0  0  0  0
 15 45  1  0  0  0  0
 15 46  1  0  0  0  0
 16 47  1  0  0  0  0
 16 48  1  0  0  0  0
 18 49  1  0  0  0  0
 18 50  1  0  0  0  0
 19 51  1  0  0  0  0
 19 52  1  0  0  0  0
 21 53  1  0  0  0  0
 22 54  1  0  0  0  0
 25 55  1  0  0  0  0
 25 56  1  0  0  0  0
 25 57  1  0  0  0  0
 28 58  1  0  0  0  0
 28 59  1  0  0  0  0
 28 60  1  0  0  0  0
 29 61  1  0  0  0  0
 30 62  1  0  0  0  0
 30 63  1  0  0  0  0
 30 64  1  0  0  0  0
 31 65  1  0  0  0  0
 32 66  1  0  0  0  0
 32 67  1  0  0  0  0
 32 68  1  0  0  0  0
 33 69  1  0  0  0  0
 33 70  1  0  0  0  0
 33 71  1  0  0  0  0
M  CHG  1   1   1
M  END
