 xtb: 6.6.1 (8d0f1dd)
          06052419583D

 25 26  0     0  0            999 V2000
    2.3306    0.0246   -1.6454 C   0  0  0  0  0  0  0  0  0  0  0  0
    1.7120    0.1614   -0.5362 N   0  0  0  0  0  0  0  0  0  0  0  0
    2.1159   -1.6147    1.1382 C   0  0  0  0  0  0  0  0  0  0  0  0
    2.4280   -2.3767    0.1922 N   0  0  0  0  0  0  0  0  0  0  0  0
    1.7418   -0.2141    0.8305 C   0  0  0  0  0  0  0  0  0  0  0  0
    0.4528    0.1916    0.1115 C   0  0  0  0  0  0  0  0  0  0  0  0
   -0.1530    1.5640    0.4854 C   0  0  0  0  0  0  0  0  0  0  0  0
    0.4685    2.5025    0.8875 O   0  0  0  0  0  0  0  0  0  0  0  0
   -1.4806    1.4188    0.2733 N   0  0  0  0  0  0  0  0  0  0  0  0
   -2.4703    2.4447    0.5135 C   0  0  0  0  0  0  0  0  0  0  0  0
   -1.8186    0.1375   -0.1875 C   0  0  0  0  0  0  0  0  0  0  0  0
   -2.9088   -0.2505   -0.4651 O   0  0  0  0  0  0  0  0  0  0  0  0
   -0.6367   -0.5864   -0.2799 N   0  0  0  0  0  0  0  0  0  0  0  0
   -0.6271   -1.9789   -0.6628 C   0  0  0  0  0  0  0  0  0  0  0  0
    2.0893    0.5218    1.5519 H   0  0  0  0  0  0  0  0  0  0  0  0
    3.3774   -0.2418   -1.6519 H   0  0  0  0  0  0  0  0  0  0  0  0
    1.8132    0.2090   -2.5770 H   0  0  0  0  0  0  0  0  0  0  0  0
    2.1040   -1.8681    2.2015 H   0  0  0  0  0  0  0  0  0  0  0  0
   -2.0009    3.4198    0.3984 H   0  0  0  0  0  0  0  0  0  0  0  0
   -3.2814    2.3181   -0.2017 H   0  0  0  0  0  0  0  0  0  0  0  0
   -2.8712    2.3549    1.5245 H   0  0  0  0  0  0  0  0  0  0  0  0
   -0.5771   -2.6238    0.2171 H   0  0  0  0  0  0  0  0  0  0  0  0
    0.2191   -2.1922   -1.3152 H   0  0  0  0  0  0  0  0  0  0  0  0
   -1.5624   -2.1748   -1.1866 H   0  0  0  0  0  0  0  0  0  0  0  0
    2.6957   -3.3285    0.4150 H   0  0  0  0  0  0  0  0  0  0  0  0
  1  2  2  0  0  0  0
  3  4  2  0  0  0  0
  2  5  1  0  0  0  0
  3  5  1  0  0  0  0
  2  6  1  0  0  0  0
  5  6  1  0  0  0  0
  6  7  1  0  0  0  0
  7  8  2  0  0  0  0
  7  9  4  0  0  0  0
  9 10  1  0  0  0  0
  9 11  1  0  0  0  0
 11 12  2  0  0  0  0
  6 13  1  0  0  0  0
 11 13  1  0  0  0  0
 13 14  1  0  0  0  0
  5 15  1  0  0  0  0
  1 16  1  0  0  0  0
  1 17  1  0  0  0  0
  3 18  1  0  0  0  0
 10 19  1  0  0  0  0
 10 20  1  0  0  0  0
 10 21  1  0  0  0  0
 14 22  1  0  0  0  0
 14 23  1  0  0  0  0
 14 24  1  0  0  0  0
  4 25  1  0  0  0  0
M  CHG  1   1   1
M  END
