 xtb: 6.6.1 (8d0f1dd)
          04062411123D

 72 72  0     0  0            999 V2000
   -2.1765    2.9422    2.2921 N   0  0  0  0  0  0  0  0  0  0  0  0
   -2.0334    2.2385    1.2687 C   0  0  0  0  0  0  0  0  0  0  0  0
   -3.1107    1.9903    0.2457 C   0  0  0  0  0  0  0  0  0  0  0  0
   -3.4852    0.5132    0.2314 C   0  0  0  0  0  0  0  0  0  0  0  0
   -4.2391    0.0541   -0.9064 C   0  0  0  0  0  0  0  0  0  0  0  0
   -4.4654   -1.2385   -1.2191 C   0  0  0  0  0  0  0  0  0  0  0  0
   -5.1396   -1.7287   -2.2617 O   0  0  0  0  0  0  0  0  0  0  0  0
   -5.7765   -0.8445   -3.1596 C   0  0  0  0  0  0  0  0  0  0  0  0
   -3.8863   -2.6102    2.0891 C   0  0  0  0  0  0  0  0  0  0  0  0
   -4.3534   -3.7450    2.4808 O   0  0  0  0  0  0  0  0  0  0  0  0
   -3.4420   -4.8408    2.5960 C   0  0  0  0  0  0  0  0  0  0  0  0
   -3.5427   -1.5766    1.5508 C   0  0  0  0  0  0  0  0  0  0  0  0
   -3.1394   -0.2592    1.2961 C   0  0  0  0  0  0  0  0  0  0  0  0
   -2.4840    2.4271   -1.1065 C   0  0  0  0  0  0  0  0  0  0  0  0
   -1.5088    1.4093   -1.7219 C   0  0  0  0  0  0  0  0  0  0  0  0
   -0.2192    1.3082   -1.0030 C   0  0  0  0  0  0  0  0  0  0  0  0
    0.3768    0.1721   -0.6532 N   0  0  0  0  0  0  0  0  0  0  0  0
    1.7501    0.1773   -0.2087 C   0  0  0  0  0  0  0  0  0  0  0  0
    2.7150   -0.1716   -1.3593 C   0  0  0  0  0  0  0  0  0  0  0  0
    4.1378   -0.0746   -0.8870 C   0  0  0  0  0  0  0  0  0  0  0  0
    4.8130    1.1340   -0.9306 C   0  0  0  0  0  0  0  0  0  0  0  0
    6.1183    1.2342   -0.4749 C   0  0  0  0  0  0  0  0  0  0  0  0
    6.7736    0.1248    0.0392 C   0  0  0  0  0  0  0  0  0  0  0  0
    8.0375    0.1039    0.5028 O   0  0  0  0  0  0  0  0  0  0  0  0
    8.8068    1.2834    0.4511 C   0  0  0  0  0  0  0  0  0  0  0  0
    6.0860   -1.1188    0.0945 C   0  0  0  0  0  0  0  0  0  0  0  0
    6.7964   -2.1444    0.6065 O   0  0  0  0  0  0  0  0  0  0  0  0
    6.2113   -3.4227    0.6704 C   0  0  0  0  0  0  0  0  0  0  0  0
    4.7811   -1.1944   -0.3653 C   0  0  0  0  0  0  0  0  0  0  0  0
   -0.2587   -1.1126   -0.8309 C   0  0  0  0  0  0  0  0  0  0  0  0
   -4.4124    2.8054    0.5123 C   0  0  0  0  0  0  0  0  0  0  0  0
   -5.0947    2.3767    1.8100 C   0  0  0  0  0  0  0  0  0  0  0  0
   -4.1830    4.3151    0.5346 C   0  0  0  0  0  0  0  0  0  0  0  0
   -4.6232    0.8143   -1.5722 H   0  0  0  0  0  0  0  0  0  0  0  0
   -6.5417   -0.2475   -2.6569 H   0  0  0  0  0  0  0  0  0  0  0  0
   -6.2468   -1.4803   -3.9099 H   0  0  0  0  0  0  0  0  0  0  0  0
   -5.0557   -0.1793   -3.6443 H   0  0  0  0  0  0  0  0  0  0  0  0
   -3.1571   -4.9720    3.6414 H   0  0  0  0  0  0  0  0  0  0  0  0
   -3.9781   -5.7252    2.2500 H   0  0  0  0  0  0  0  0  0  0  0  0
   -2.5499   -4.6755    1.9927 H   0  0  0  0  0  0  0  0  0  0  0  0
   -4.0741   -2.0409   -0.6132 H   0  0  0  0  0  0  0  0  0  0  0  0
   -2.5561    0.1935    2.0954 H   0  0  0  0  0  0  0  0  0  0  0  0
   -3.2806    2.6159   -1.8270 H   0  0  0  0  0  0  0  0  0  0  0  0
   -1.9584    3.3717   -0.9508 H   0  0  0  0  0  0  0  0  0  0  0  0
   -1.9936    0.4395   -1.8057 H   0  0  0  0  0  0  0  0  0  0  0  0
   -1.2890    1.7611   -2.7379 H   0  0  0  0  0  0  0  0  0  0  0  0
   -1.0782    1.7633    0.9747 H   0  0  0  0  0  0  0  0  0  0  0  0
    0.3509    2.2148   -0.8657 H   0  0  0  0  0  0  0  0  0  0  0  0
    1.8702   -0.5459    0.6023 H   0  0  0  0  0  0  0  0  0  0  0  0
    2.0036    1.1675    0.1767 H   0  0  0  0  0  0  0  0  0  0  0  0
    2.5464    0.5295   -2.1789 H   0  0  0  0  0  0  0  0  0  0  0  0
    2.5047   -1.1799   -1.7184 H   0  0  0  0  0  0  0  0  0  0  0  0
    4.3286    2.0095   -1.3357 H   0  0  0  0  0  0  0  0  0  0  0  0
    6.6207    2.1859   -0.5293 H   0  0  0  0  0  0  0  0  0  0  0  0
    8.3682    2.0753    1.0659 H   0  0  0  0  0  0  0  0  0  0  0  0
    8.9235    1.6400   -0.5767 H   0  0  0  0  0  0  0  0  0  0  0  0
    9.7816    1.0135    0.8524 H   0  0  0  0  0  0  0  0  0  0  0  0
    6.9757   -4.0729    1.0912 H   0  0  0  0  0  0  0  0  0  0  0  0
    5.3322   -3.4299    1.3231 H   0  0  0  0  0  0  0  0  0  0  0  0
    5.9334   -3.7873   -0.3234 H   0  0  0  0  0  0  0  0  0  0  0  0
    4.2532   -2.1348   -0.3364 H   0  0  0  0  0  0  0  0  0  0  0  0
   -0.3757   -1.3552   -1.8903 H   0  0  0  0  0  0  0  0  0  0  0  0
   -1.2432   -1.1186   -0.3561 H   0  0  0  0  0  0  0  0  0  0  0  0
    0.3537   -1.8809   -0.3654 H   0  0  0  0  0  0  0  0  0  0  0  0
   -5.0950    2.5808   -0.3161 H   0  0  0  0  0  0  0  0  0  0  0  0
   -4.4374    2.5585    2.6541 H   0  0  0  0  0  0  0  0  0  0  0  0
   -5.3634    1.3227    1.7897 H   0  0  0  0  0  0  0  0  0  0  0  0
   -6.0025    2.9573    1.9500 H   0  0  0  0  0  0  0  0  0  0  0  0
   -3.5427    4.5838    1.3691 H   0  0  0  0  0  0  0  0  0  0  0  0
   -3.7371    4.6774   -0.3890 H   0  0  0  0  0  0  0  0  0  0  0  0
   -5.1391    4.8161    0.6609 H   0  0  0  0  0  0  0  0  0  0  0  0
   -1.3739    3.0708    2.8975 H   0  0  0  0  0  0  0  0  0  0  0  0
  1  2  2  0  0  0  0
  2  3  1  0  0  0  0
  3  4  1  0  0  0  0
  4  5  1  0  0  0  0
  5  6  2  0  0  0  0
  6  7  1  0  0  0  0
  7  8  1  0  0  0  0
  9 10  1  0  0  0  0
 10 11  1  0  0  0  0
  9 12  3  0  0  0  0
  4 13  2  0  0  0  0
 12 13  1  0  0  0  0
  3 14  1  0  0  0  0
 14 15  1  0  0  0  0
 15 16  1  0  0  0  0
 16 17  4  0  0  0  0
 17 18  1  0  0  0  0
 18 19  1  0  0  0  0
 19 20  1  0  0  0  0
 20 21  4  0  0  0  0
 21 22  4  0  0  0  0
 22 23  4  0  0  0  0
 23 24  1  0  0  0  0
 24 25  1  0  0  0  0
 23 26  4  0  0  0  0
 26 27  1  0  0  0  0
 27 28  1  0  0  0  0
 20 29  4  0  0  0  0
 26 29  4  0  0  0  0
 17 30  1  0  0  0  0
  3 31  1  0  0  0  0
 31 32  1  0  0  0  0
 31 33  1  0  0  0  0
  5 34  1  0  0  0  0
  8 35  1  0  0  0  0
  8 36  1  0  0  0  0
  8 37  1  0  0  0  0
 11 38  1  0  0  0  0
 11 39  1  0  0  0  0
 11 40  1  0  0  0  0
  6 41  1  0  0  0  0
 13 42  1  0  0  0  0
 14 43  1  0  0  0  0
 14 44  1  0  0  0  0
 15 45  1  0  0  0  0
 15 46  1  0  0  0  0
  2 47  1  0  0  0  0
 16 48  1  0  0  0  0
 18 49  1  0  0  0  0
 18 50  1  0  0  0  0
 19 51  1  0  0  0  0
 19 52  1  0  0  0  0
 21 53  1  0  0  0  0
 22 54  1  0  0  0  0
 25 55  1  0  0  0  0
 25 56  1  0  0  0  0
 25 57  1  0  0  0  0
 28 58  1  0  0  0  0
 28 59  1  0  0  0  0
 28 60  1  0  0  0  0
 29 61  1  0  0  0  0
 30 62  1  0  0  0  0
 30 63  1  0  0  0  0
 30 64  1  0  0  0  0
 31 65  1  0  0  0  0
 32 66  1  0  0  0  0
 32 67  1  0  0  0  0
 32 68  1  0  0  0  0
 33 69  1  0  0  0  0
 33 70  1  0  0  0  0
 33 71  1  0  0  0  0
  1 72  1  0  0  0  0
M  CHG  1   1   1
M  END
