          71
 
N             -2.46324273        2.54263384        2.61405370
C             -1.86626013        2.12716076        1.50990098
C             -2.85640898        1.98363125        0.40019326
C             -3.39607200        0.55233138        0.35622386
C             -4.43115760        0.24065414       -0.52529482
C             -4.97734626       -1.03086668       -0.57165501
O             -5.97564425       -1.41966752       -1.39137376
C             -6.58041299       -0.47000282       -2.23633792
C             -4.47833712       -2.03856257        0.29705691
O             -5.07620827       -3.24143190        0.19454033
C             -4.71659478       -4.26062665        1.09844007
C             -3.43966658       -1.72300574        1.15653750
C             -2.90528110       -0.44125757        1.18549482
C             -2.30489658        2.39227010       -0.97775529
C             -1.40912978        1.32699131       -1.63307778
C             -0.08863766        1.19471746       -0.98311923
N              0.48870717        0.05134207       -0.62174151
C              1.87614924        0.03701189       -0.22389450
C              2.80311164       -0.32539670       -1.40169086
C              4.24042219       -0.21680352       -0.97803356
C              4.91943805        0.98461049       -1.09069095
C              6.23808624        1.09607152       -0.67689299
C              6.90263428        0.00575058       -0.13561306
O              8.17913927       -0.00079758        0.29611934
C              8.94515446        1.17627113        0.18571642
C              6.21266738       -1.23076422       -0.01198007
O              6.93319655       -2.23960561        0.52091789
C              6.34455240       -3.51142594        0.64863921
C              4.89509401       -1.31816593       -0.43116058
C             -0.14641203       -1.22721451       -0.83201241
C             -4.00054258        2.91360250        0.92426394
C             -3.87610594        2.70332082        2.43973108
C             -3.81284831        4.38882623        0.55767242
H             -4.82161853        1.00826883       -1.17355571
H             -7.02978340        0.34746408       -1.66412844
H             -7.36245988       -1.00797239       -2.76840203
H             -5.86669669       -0.06325534       -2.96045648
H             -4.87082654       -3.94759512        2.13512237
H             -5.37384754       -5.09777361        0.87168476
H             -3.67568737       -4.57078355        0.95995681
H             -3.04796033       -2.46384253        1.83390004
H             -2.10961105       -0.22849099        1.88314297
H             -3.14750709        2.57200608       -1.64445647
H             -1.74511804        3.32272119       -0.88309535
H             -1.93851182        0.37704340       -1.66772212
H             -1.24176733        1.65278964       -2.66819977
H             -0.81499335        1.91572258        1.46553315
H              0.48766399        2.09405170       -0.83011196
H              2.01150827       -0.68787720        0.58276778
H              2.15491946        1.02378749        0.15152118
H              2.60470346        0.36388577       -2.22443818
H              2.58528238       -1.33915649       -1.73936314
H              4.42760883        1.84565771       -1.51751396
H              6.74305190        2.04167336       -0.78648328
H              8.51520107        1.99149522        0.77590003
H              9.04514876        1.49287792       -0.85689981
H              9.92688692        0.92383721        0.58165324
H              7.11660207       -4.14922245        1.07457447
H              5.48229546       -3.48941314        1.32310594
H              6.03978227       -3.91249935       -0.32306625
H              4.36468600       -2.25403445       -0.34985916
H             -0.24454021       -1.45401606       -1.89634845
H             -1.13956625       -1.23670848       -0.37773801
H              0.45375788       -2.00452767       -0.36575396
H             -4.97220751        2.57625848        0.56648943
H             -4.39370254        1.75579312        2.76782786
H             -4.25643657        3.53323191        3.03503639
H             -2.84934828        4.75814920        0.90193544
H             -3.88459305        4.53814057       -0.51474010
H             -4.59658272        4.97761094        1.02805913
H             -2.02393944        2.59167859        3.51991971
