 xtb: 6.6.1 (8d0f1dd)
          06052419583D

 25 25  0     0  0            999 V2000
    3.2525    1.1901    0.0163 C   0  0  0  0  0  0  0  0  0  0  0  0
    2.1834    0.2292    0.0003 N   0  0  0  0  0  0  0  0  0  0  0  0
    2.3020   -1.0984   -0.0040 C   0  0  0  0  0  0  0  0  0  0  0  0
    1.0825   -1.6745    0.0004 N   0  0  0  0  0  0  0  0  0  0  0  0
    0.1381   -0.6820    0.0088 C   0  0  0  0  0  0  0  0  0  0  0  0
    0.8473    0.5293    0.0087 C   0  0  0  0  0  0  0  0  0  0  0  0
    0.1298    1.7811   -0.0044 C   0  0  0  0  0  0  0  0  0  0  0  0
    0.6411    2.8870   -0.0249 O   0  0  0  0  0  0  0  0  0  0  0  0
   -1.2422    1.5821    0.0048 N   0  0  0  0  0  0  0  0  0  0  0  0
   -2.0990    2.7462   -0.0041 C   0  0  0  0  0  0  0  0  0  0  0  0
   -1.9158    0.3249    0.0177 C   0  0  0  0  0  0  0  0  0  0  0  0
   -3.1220    0.3208    0.0293 O   0  0  0  0  0  0  0  0  0  0  0  0
   -1.1652   -0.8050    0.0151 N   0  0  0  0  0  0  0  0  0  0  0  0
   -1.3920   -4.6476   -0.0170 C   0  0  0  0  0  0  0  0  0  0  0  0
    3.7595    1.1785    0.9832 H   0  0  0  0  0  0  0  0  0  0  0  0
    3.9795    0.9629   -0.7631 H   0  0  0  0  0  0  0  0  0  0  0  0
    2.8336    2.1832   -0.1484 H   0  0  0  0  0  0  0  0  0  0  0  0
    3.2310   -1.6340   -0.0111 H   0  0  0  0  0  0  0  0  0  0  0  0
   -1.4723    3.6377    0.0010 H   0  0  0  0  0  0  0  0  0  0  0  0
   -2.7352    2.7348   -0.8922 H   0  0  0  0  0  0  0  0  0  0  0  0
   -2.7525    2.7343    0.8714 H   0  0  0  0  0  0  0  0  0  0  0  0
   -0.8950   -4.8471    0.9111 H   0  0  0  0  0  0  0  0  0  0  0  0
   -0.9022   -4.8480   -0.9503 H   0  0  0  0  0  0  0  0  0  0  0  0
   -2.4064   -4.3034   -0.0137 H   0  0  0  0  0  0  0  0  0  0  0  0
    0.8799   -2.6638   -0.0038 H   0  0  0  0  0  0  0  0  0  0  0  0
  1  2  1  0  0  0  0
  2  3  4  0  0  0  0
  3  4  4  0  0  0  0
  4  5  1  0  0  0  0
  2  6  1  0  0  0  0
  5  6  4  0  0  0  0
  6  7  1  0  0  0  0
  7  8  2  0  0  0  0
  7  9  1  0  0  0  0
  9 10  1  0  0  0  0
  9 11  1  0  0  0  0
 11 12  2  0  0  0  0
  5 13  4  0  0  0  0
 11 13  1  0  0  0  0
  1 15  1  0  0  0  0
  1 16  1  0  0  0  0
  1 17  1  0  0  0  0
  3 18  1  0  0  0  0
 10 19  1  0  0  0  0
 10 20  1  0  0  0  0
 10 21  1  0  0  0  0
 14 22  1  0  0  0  0
 14 23  1  0  0  0  0
 14 24  1  0  0  0  0
  4 25  1  0  0  0  0
M  CHG  1   1   1
M  END
