 xtb: 6.6.1 (8d0f1dd)
          04062411113D

 72 72  0     0  0            999 V2000
   -1.2352    2.8286    2.1459 N   0  0  0  0  0  0  0  0  0  0  0  0
   -1.7572    1.6717    1.9453 C   0  0  0  0  0  0  0  0  0  0  0  0
   -3.0008    1.4819    1.3036 C   0  0  0  0  0  0  0  0  0  0  0  0
   -3.4646    0.1540    1.0290 C   0  0  0  0  0  0  0  0  0  0  0  0
   -4.3416   -0.1092   -0.0498 C   0  0  0  0  0  0  0  0  0  0  0  0
   -4.7498   -1.3879   -0.3688 C   0  0  0  0  0  0  0  0  0  0  0  0
   -5.5567   -1.7142   -1.4022 O   0  0  0  0  0  0  0  0  0  0  0  0
   -6.1244   -0.6905   -2.1840 C   0  0  0  0  0  0  0  0  0  0  0  0
   -4.3011   -2.4911    0.4119 C   0  0  0  0  0  0  0  0  0  0  0  0
   -4.7467   -3.6986    0.0226 O   0  0  0  0  0  0  0  0  0  0  0  0
   -4.4125   -4.8365    0.7832 C   0  0  0  0  0  0  0  0  0  0  0  0
   -3.4622   -2.2391    1.4920 C   0  0  0  0  0  0  0  0  0  0  0  0
   -3.0500   -0.9555    1.7904 C   0  0  0  0  0  0  0  0  0  0  0  0
   -2.3490    2.2469   -2.5624 C   0  0  0  0  0  0  0  0  0  0  0  0
   -1.7296    0.9926   -2.0691 C   0  0  0  0  0  0  0  0  0  0  0  0
   -0.4705    1.1992   -1.3259 C   0  0  0  0  0  0  0  0  0  0  0  0
    0.1807    0.2307   -0.7049 N   0  0  0  0  0  0  0  0  0  0  0  0
    1.5295    0.4312   -0.2296 C   0  0  0  0  0  0  0  0  0  0  0  0
    2.5491   -0.0575   -1.2784 C   0  0  0  0  0  0  0  0  0  0  0  0
    3.9606    0.1185   -0.7949 C   0  0  0  0  0  0  0  0  0  0  0  0
    4.6287    1.3177   -0.9834 C   0  0  0  0  0  0  0  0  0  0  0  0
    5.9382    1.4746   -0.5575 C   0  0  0  0  0  0  0  0  0  0  0  0
    6.6072    0.4330    0.0702 C   0  0  0  0  0  0  0  0  0  0  0  0
    7.8799    0.4655    0.5044 O   0  0  0  0  0  0  0  0  0  0  0  0
    8.6569    1.6182    0.2732 C   0  0  0  0  0  0  0  0  0  0  0  0
    5.9238   -0.7964    0.2838 C   0  0  0  0  0  0  0  0  0  0  0  0
    6.6451   -1.7537    0.8995 O   0  0  0  0  0  0  0  0  0  0  0  0
    6.0686   -3.0191    1.1180 C   0  0  0  0  0  0  0  0  0  0  0  0
    4.6138   -0.9286   -0.1490 C   0  0  0  0  0  0  0  0  0  0  0  0
   -0.3420   -1.1125   -0.6759 C   0  0  0  0  0  0  0  0  0  0  0  0
   -3.8110    2.6876    0.9079 C   0  0  0  0  0  0  0  0  0  0  0  0
   -4.1827    3.4892    2.1648 C   0  0  0  0  0  0  0  0  0  0  0  0
   -3.0675    3.5936   -0.0694 C   0  0  0  0  0  0  0  0  0  0  0  0
   -4.6890    0.7123   -0.6537 H   0  0  0  0  0  0  0  0  0  0  0  0
   -6.7186   -0.0023   -1.5762 H   0  0  0  0  0  0  0  0  0  0  0  0
   -6.7746   -1.1947   -2.8962 H   0  0  0  0  0  0  0  0  0  0  0  0
   -5.3582   -0.1298   -2.7301 H   0  0  0  0  0  0  0  0  0  0  0  0
   -4.7590   -4.7442    1.8165 H   0  0  0  0  0  0  0  0  0  0  0  0
   -4.9250   -5.6681    0.3038 H   0  0  0  0  0  0  0  0  0  0  0  0
   -3.3338   -5.0222    0.7745 H   0  0  0  0  0  0  0  0  0  0  0  0
   -3.1340   -3.0513    2.1207 H   0  0  0  0  0  0  0  0  0  0  0  0
   -2.4393   -0.8100    2.6666 H   0  0  0  0  0  0  0  0  0  0  0  0
   -3.3140    2.1761   -3.0307 H   0  0  0  0  0  0  0  0  0  0  0  0
   -1.7088    3.0388   -2.9082 H   0  0  0  0  0  0  0  0  0  0  0  0
   -2.4495    0.4291   -1.4594 H   0  0  0  0  0  0  0  0  0  0  0  0
   -1.5121    0.3289   -2.9281 H   0  0  0  0  0  0  0  0  0  0  0  0
   -1.2190    0.7588    2.2297 H   0  0  0  0  0  0  0  0  0  0  0  0
   -0.0306    2.1832   -1.3066 H   0  0  0  0  0  0  0  0  0  0  0  0
    1.6690   -0.1184    0.7043 H   0  0  0  0  0  0  0  0  0  0  0  0
    1.6907    1.4924   -0.0330 H   0  0  0  0  0  0  0  0  0  0  0  0
    2.3996    0.5139   -2.1966 H   0  0  0  0  0  0  0  0  0  0  0  0
    2.3643   -1.1109   -1.4950 H   0  0  0  0  0  0  0  0  0  0  0  0
    4.1360    2.1380   -1.4827 H   0  0  0  0  0  0  0  0  0  0  0  0
    6.4358    2.4151   -0.7279 H   0  0  0  0  0  0  0  0  0  0  0  0
    8.2529    2.4869    0.8016 H   0  0  0  0  0  0  0  0  0  0  0  0
    8.7318    1.8419   -0.7950 H   0  0  0  0  0  0  0  0  0  0  0  0
    9.6456    1.3865    0.6640 H   0  0  0  0  0  0  0  0  0  0  0  0
    6.8431   -3.6139    1.5983 H   0  0  0  0  0  0  0  0  0  0  0  0
    5.1995   -2.9553    1.7807 H   0  0  0  0  0  0  0  0  0  0  0  0
    5.7784   -3.4959    0.1765 H   0  0  0  0  0  0  0  0  0  0  0  0
    4.0920   -1.8618   -0.0048 H   0  0  0  0  0  0  0  0  0  0  0  0
   -0.4304   -1.5253   -1.6838 H   0  0  0  0  0  0  0  0  0  0  0  0
   -1.3311   -1.1234   -0.2129 H   0  0  0  0  0  0  0  0  0  0  0  0
    0.3200   -1.7481   -0.0937 H   0  0  0  0  0  0  0  0  0  0  0  0
   -4.7487    2.3613    0.4503 H   0  0  0  0  0  0  0  0  0  0  0  0
   -3.2830    3.8834    2.6280 H   0  0  0  0  0  0  0  0  0  0  0  0
   -4.7011    2.8531    2.8787 H   0  0  0  0  0  0  0  0  0  0  0  0
   -4.8368    4.3151    1.8967 H   0  0  0  0  0  0  0  0  0  0  0  0
   -2.1289    3.9150    0.3716 H   0  0  0  0  0  0  0  0  0  0  0  0
   -2.8413    3.0541   -1.0257 H   0  0  0  0  0  0  0  0  0  0  0  0
   -3.6703    4.4629   -0.3148 H   0  0  0  0  0  0  0  0  0  0  0  0
   -0.3420    2.8488    2.6232 H   0  0  0  0  0  0  0  0  0  0  0  0
  1  2  2  0  0  0  0
  2  3  4  0  0  0  0
  3  4  4  0  0  0  0
  4  5  4  0  0  0  0
  5  6  4  0  0  0  0
  6  7  1  0  0  0  0
  7  8  1  0  0  0  0
  6  9  4  0  0  0  0
  9 10  1  0  0  0  0
 10 11  1  0  0  0  0
  9 12  4  0  0  0  0
  4 13  4  0  0  0  0
 12 13  4  0  0  0  0
 14 15  1  0  0  0  0
 15 16  1  0  0  0  0
 16 17  4  0  0  0  0
 17 18  1  0  0  0  0
 18 19  1  0  0  0  0
 19 20  1  0  0  0  0
 20 21  4  0  0  0  0
 21 22  4  0  0  0  0
 22 23  4  0  0  0  0
 23 24  1  0  0  0  0
 24 25  1  0  0  0  0
 23 26  4  0  0  0  0
 26 27  1  0  0  0  0
 27 28  1  0  0  0  0
 20 29  4  0  0  0  0
 26 29  4  0  0  0  0
 17 30  1  0  0  0  0
  3 31  1  0  0  0  0
 31 32  1  0  0  0  0
 31 33  1  0  0  0  0
  5 34  1  0  0  0  0
  8 35  1  0  0  0  0
  8 36  1  0  0  0  0
  8 37  1  0  0  0  0
 11 38  1  0  0  0  0
 11 39  1  0  0  0  0
 11 40  1  0  0  0  0
 12 41  1  0  0  0  0
 13 42  1  0  0  0  0
 14 43  1  0  0  0  0
 14 44  1  0  0  0  0
 15 45  1  0  0  0  0
 15 46  1  0  0  0  0
  2 47  1  0  0  0  0
 16 48  1  0  0  0  0
 18 49  1  0  0  0  0
 18 50  1  0  0  0  0
 19 51  1  0  0  0  0
 19 52  1  0  0  0  0
 21 53  1  0  0  0  0
 22 54  1  0  0  0  0
 25 55  1  0  0  0  0
 25 56  1  0  0  0  0
 25 57  1  0  0  0  0
 28 58  1  0  0  0  0
 28 59  1  0  0  0  0
 28 60  1  0  0  0  0
 29 61  1  0  0  0  0
 30 62  1  0  0  0  0
 30 63  1  0  0  0  0
 30 64  1  0  0  0  0
 31 65  1  0  0  0  0
 32 66  1  0  0  0  0
 32 67  1  0  0  0  0
 32 68  1  0  0  0  0
 33 69  1  0  0  0  0
 33 70  1  0  0  0  0
 33 71  1  0  0  0  0
  1 72  1  0  0  0  0
M  CHG  1   1   1
M  END
