 xtb: 6.6.1 (8d0f1dd)
          06052419583D

 25 25  0     0  0            999 V2000
    3.2241    1.1215    0.0574 C   0  0  0  0  0  0  0  0  0  0  0  0
    2.2946    0.0235    0.0199 N   0  0  0  0  0  0  0  0  0  0  0  0
    2.5899   -1.2682    0.0472 C   0  0  0  0  0  0  0  0  0  0  0  0
    1.4577   -2.0002    0.0124 N   0  0  0  0  0  0  0  0  0  0  0  0
    0.4001   -1.1416   -0.0387 C   0  0  0  0  0  0  0  0  0  0  0  0
    0.9231    0.1457   -0.0350 C   0  0  0  0  0  0  0  0  0  0  0  0
    0.0961    1.3156   -0.0921 C   0  0  0  0  0  0  0  0  0  0  0  0
    0.4549    2.4721   -0.1070 O   0  0  0  0  0  0  0  0  0  0  0  0
   -1.2946    0.9684   -0.1393 N   0  0  0  0  0  0  0  0  0  0  0  0
   -2.1731    1.9799   -0.2012 C   0  0  0  0  0  0  0  0  0  0  0  0
   -1.8307   -0.3545   -0.1370 C   0  0  0  0  0  0  0  0  0  0  0  0
   -3.0138   -0.5435   -0.1750 O   0  0  0  0  0  0  0  0  0  0  0  0
   -0.9194   -1.4069   -0.0860 N   0  0  0  0  0  0  0  0  0  0  0  0
   -1.4218   -2.7685   -0.0910 C   0  0  0  0  0  0  0  0  0  0  0  0
    3.7170    1.1661    1.0291 H   0  0  0  0  0  0  0  0  0  0  0  0
    3.9814    1.0029   -0.7164 H   0  0  0  0  0  0  0  0  0  0  0  0
    2.6754    2.0490   -0.1035 H   0  0  0  0  0  0  0  0  0  0  0  0
    3.5800   -1.6779    0.0909 H   0  0  0  0  0  0  0  0  0  0  0  0
   -1.7830    2.9789   -0.2314 H   0  0  0  0  0  0  0  0  0  0  0  0
   -3.2224    1.7555   -0.2265 H   0  0  0  0  0  0  0  0  0  0  0  0
   -3.2972    4.3209    1.4140 H   0  0  0  0  0  0  0  0  0  0  0  0
   -1.0884   -3.2982    0.8012 H   0  0  0  0  0  0  0  0  0  0  0  0
   -1.0928   -3.2925   -0.9887 H   0  0  0  0  0  0  0  0  0  0  0  0
   -2.5101   -2.7199   -0.0893 H   0  0  0  0  0  0  0  0  0  0  0  0
    1.4134   -3.0098    0.0169 H   0  0  0  0  0  0  0  0  0  0  0  0
  1  2  1  0  0  0  0
  2  3  4  0  0  0  0
  3  4  4  0  0  0  0
  4  5  1  0  0  0  0
  2  6  1  0  0  0  0
  5  6  4  0  0  0  0
  6  7  1  0  0  0  0
  7  8  2  0  0  0  0
  7  9  1  0  0  0  0
  9 10  4  0  0  0  0
  9 11  1  0  0  0  0
 11 12  2  0  0  0  0
  5 13  1  0  0  0  0
 11 13  1  0  0  0  0
 13 14  1  0  0  0  0
  1 15  1  0  0  0  0
  1 16  1  0  0  0  0
  1 17  1  0  0  0  0
  3 18  1  0  0  0  0
 10 19  1  0  0  0  0
 10 20  1  0  0  0  0
 14 22  1  0  0  0  0
 14 23  1  0  0  0  0
 14 24  1  0  0  0  0
  4 25  1  0  0  0  0
M  CHG  1   1   1
M  END
