          24
 
C              3.22072466        1.12715038        0.01525131
N              2.26401293        0.05449415       -0.00102439
C              2.55883654       -1.24980785       -0.00614243
N              1.39131634       -1.93322878       -0.00530914
C              0.34542029       -1.05764772        0.00020444
C              0.89726190        0.21728372        0.00521398
C              0.07125148        1.40260619       -0.00306051
O              0.46277029        2.54598532       -0.01484344
N             -1.28675448        1.07424438        0.00132044
C             -2.24329507        2.16954193        0.00024959
C             -1.85510111       -0.18887150        0.00342980
O             -3.04480955       -0.35262014        0.00629014
N             -0.97859853       -1.28937961        0.00074070
C             -1.52860939       -2.62826778       -0.00232422
H              3.72291274        1.16596181        0.98339589
H              3.97127562        0.96292158       -0.75689384
H              2.70702614        2.07243124       -0.15669681
H             -1.69157097        3.10700718        0.00825787
H             -2.87527417        2.10891553       -0.88686103
H             -2.88665104        2.09930697        0.87833834
H             -1.20435979       -3.17357672        0.88493303
H             -1.21884970       -3.16403746       -0.90060882
H             -2.61465282       -2.54195539        0.00660446
H              1.33132492       -2.94079896       -0.00962496
