 xtb: 6.6.1 (8d0f1dd)
          06052419583D

 25 25  0     0  0            999 V2000
    3.2846    1.2525    0.1040 C   0  0  0  0  0  0  0  0  0  0  0  0
    2.3734    0.1392    0.0486 N   0  0  0  0  0  0  0  0  0  0  0  0
    2.6915   -1.1437    0.0306 C   0  0  0  0  0  0  0  0  0  0  0  0
    1.5801   -1.8989   -0.0156 N   0  0  0  0  0  0  0  0  0  0  0  0
    0.4954   -1.0520   -0.0276 C   0  0  0  0  0  0  0  0  0  0  0  0
    1.0052    0.2423    0.0129 C   0  0  0  0  0  0  0  0  0  0  0  0
    0.1520    1.4117    0.0043 C   0  0  0  0  0  0  0  0  0  0  0  0
    0.5277    2.5607    0.0423 O   0  0  0  0  0  0  0  0  0  0  0  0
   -1.1954    1.0484   -0.0569 N   0  0  0  0  0  0  0  0  0  0  0  0
   -2.1747    2.1317   -0.0781 C   0  0  0  0  0  0  0  0  0  0  0  0
   -1.7426   -0.2055   -0.1024 C   0  0  0  0  0  0  0  0  0  0  0  0
   -2.9179   -0.4212   -0.1617 O   0  0  0  0  0  0  0  0  0  0  0  0
   -0.8234   -1.3402   -0.0766 N   0  0  0  0  0  0  0  0  0  0  0  0
   -1.3524   -2.5738   -0.1092 C   0  0  0  0  0  0  0  0  0  0  0  0
    3.8585    1.2253    1.0306 H   0  0  0  0  0  0  0  0  0  0  0  0
    3.9756    1.2186   -0.7380 H   0  0  0  0  0  0  0  0  0  0  0  0
    2.7086    2.1770    0.0656 H   0  0  0  0  0  0  0  0  0  0  0  0
    3.6931   -1.5294    0.0490 H   0  0  0  0  0  0  0  0  0  0  0  0
   -1.6336    3.0736   -0.0384 H   0  0  0  0  0  0  0  0  0  0  0  0
   -2.7683    2.0751   -0.9893 H   0  0  0  0  0  0  0  0  0  0  0  0
   -2.8413    2.0425    0.7782 H   0  0  0  0  0  0  0  0  0  0  0  0
   -0.7170   -3.4349   -0.0754 H   0  0  0  0  0  0  0  0  0  0  0  0
   -2.4280   -2.6724   -0.0972 H   0  0  0  0  0  0  0  0  0  0  0  0
   -4.1517   -3.5999    0.4715 H   0  0  0  0  0  0  0  0  0  0  0  0
    1.5611   -2.9085   -0.0399 H   0  0  0  0  0  0  0  0  0  0  0  0
  1  2  1  0  0  0  0
  2  3  4  0  0  0  0
  3  4  4  0  0  0  0
  4  5  1  0  0  0  0
  2  6  1  0  0  0  0
  5  6  4  0  0  0  0
  6  7  1  0  0  0  0
  7  8  2  0  0  0  0
  7  9  1  0  0  0  0
  9 10  1  0  0  0  0
  9 11  1  0  0  0  0
 11 12  2  0  0  0  0
  5 13  1  0  0  0  0
 11 13  1  0  0  0  0
 13 14  4  0  0  0  0
  1 15  1  0  0  0  0
  1 16  1  0  0  0  0
  1 17  1  0  0  0  0
  3 18  1  0  0  0  0
 10 19  1  0  0  0  0
 10 20  1  0  0  0  0
 10 21  1  0  0  0  0
 14 22  1  0  0  0  0
 14 23  1  0  0  0  0
  4 25  1  0  0  0  0
M  CHG  1   1   1
M  END
