 xtb: 6.6.1 (8d0f1dd)
          04062411173D

 72 72  0     0  0            999 V2000
   -2.1933    2.9472    2.2620 N   0  0  0  0  0  0  0  0  0  0  0  0
   -2.0336    2.1954    1.2785 C   0  0  0  0  0  0  0  0  0  0  0  0
   -3.0766    1.9250    0.2295 C   0  0  0  0  0  0  0  0  0  0  0  0
   -3.4683    0.4561    0.2716 C   0  0  0  0  0  0  0  0  0  0  0  0
   -4.2588   -0.0799   -0.7470 C   0  0  0  0  0  0  0  0  0  0  0  0
   -4.6650   -1.4039   -0.7278 C   0  0  0  0  0  0  0  0  0  0  0  0
   -5.4353   -1.9960   -1.6628 O   0  0  0  0  0  0  0  0  0  0  0  0
   -5.9767   -1.2185   -2.7048 C   0  0  0  0  0  0  0  0  0  0  0  0
   -4.2616   -2.2444    0.3456 C   0  0  0  0  0  0  0  0  0  0  0  0
   -4.6984   -3.5171    0.2807 O   0  0  0  0  0  0  0  0  0  0  0  0
   -4.4214   -4.3934    1.3485 C   0  0  0  0  0  0  0  0  0  0  0  0
   -3.4774   -1.7054    1.3533 C   0  0  0  0  0  0  0  0  0  0  0  0
   -3.0897   -0.3722    1.3169 C   0  0  0  0  0  0  0  0  0  0  0  0
   -2.4073    2.2620   -1.1293 C   0  0  0  0  0  0  0  0  0  0  0  0
   -1.3764    1.2243   -1.6070 C   0  0  0  0  0  0  0  0  0  0  0  0
   -0.1147    1.2483   -0.8355 C   0  0  0  0  0  0  0  0  0  0  0  0
    0.5604    0.1814   -0.4352 N   0  0  0  0  0  0  0  0  0  0  0  0
    1.8723    0.3297    0.1521 C   0  0  0  0  0  0  0  0  0  0  0  0
    2.9911    0.1320   -0.8873 C   0  0  0  0  0  0  0  0  0  0  0  0
    4.3260    0.4115   -0.2529 C   0  0  0  0  0  0  0  0  0  0  0  0
    4.7349    1.7248   -0.0568 C   0  0  0  0  0  0  0  0  0  0  0  0
    5.9500    1.9867    0.5532 C   0  0  0  0  0  0  0  0  0  0  0  0
    6.7595    0.9506    0.9616 C   0  0  0  0  0  0  0  0  0  0  0  0
    7.1905   -1.2614   -1.9471 O   0  0  0  0  0  0  0  0  0  0  0  0
    8.3319   -0.8969   -1.9618 C   0  0  0  0  0  0  0  0  0  0  0  0
    6.3656   -0.3767    0.7629 C   0  0  0  0  0  0  0  0  0  0  0  0
    7.2377   -1.3170    1.1791 O   0  0  0  0  0  0  0  0  0  0  0  0
    6.9448   -2.6785    0.9533 C   0  0  0  0  0  0  0  0  0  0  0  0
    5.1345   -0.6355    0.1650 C   0  0  0  0  0  0  0  0  0  0  0  0
    0.0647   -1.1589   -0.6381 C   0  0  0  0  0  0  0  0  0  0  0  0
   -4.3680    2.7773    0.4092 C   0  0  0  0  0  0  0  0  0  0  0  0
   -5.0910    2.4282    1.7078 C   0  0  0  0  0  0  0  0  0  0  0  0
   -4.1112    4.2804    0.3509 C   0  0  0  0  0  0  0  0  0  0  0  0
   -4.5744    0.5532   -1.5595 H   0  0  0  0  0  0  0  0  0  0  0  0
   -6.5869   -0.3974   -2.3168 H   0  0  0  0  0  0  0  0  0  0  0  0
   -6.6074   -1.8961   -3.2768 H   0  0  0  0  0  0  0  0  0  0  0  0
   -5.1941   -0.8181   -3.3575 H   0  0  0  0  0  0  0  0  0  0  0  0
   -4.8346   -4.0200    2.2901 H   0  0  0  0  0  0  0  0  0  0  0  0
   -4.9063   -5.3322    1.0886 H   0  0  0  0  0  0  0  0  0  0  0  0
   -3.3457   -4.5612    1.4622 H   0  0  0  0  0  0  0  0  0  0  0  0
   -3.1723   -2.3137    2.1893 H   0  0  0  0  0  0  0  0  0  0  0  0
   -2.5077    0.0182    2.1373 H   0  0  0  0  0  0  0  0  0  0  0  0
   -3.1830    2.3423   -1.8899 H   0  0  0  0  0  0  0  0  0  0  0  0
   -1.9230    3.2359   -1.0498 H   0  0  0  0  0  0  0  0  0  0  0  0
   -1.8275    0.2334   -1.6085 H   0  0  0  0  0  0  0  0  0  0  0  0
   -1.1292    1.4798   -2.6458 H   0  0  0  0  0  0  0  0  0  0  0  0
   -1.0819    1.6790    1.0462 H   0  0  0  0  0  0  0  0  0  0  0  0
    0.3672    2.2054   -0.6980 H   0  0  0  0  0  0  0  0  0  0  0  0
    1.9885   -0.3993    0.9577 H   0  0  0  0  0  0  0  0  0  0  0  0
    1.9637    1.3296    0.5820 H   0  0  0  0  0  0  0  0  0  0  0  0
    2.8252    0.8224   -1.7167 H   0  0  0  0  0  0  0  0  0  0  0  0
    2.9636   -0.8863   -1.2753 H   0  0  0  0  0  0  0  0  0  0  0  0
    4.1145    2.5417   -0.3922 H   0  0  0  0  0  0  0  0  0  0  0  0
    6.2703    3.0064    0.7050 H   0  0  0  0  0  0  0  0  0  0  0  0
    7.7037    1.1414    1.4279 H   0  0  0  0  0  0  0  0  0  0  0  0
    8.6141    0.1604   -2.0763 H   0  0  0  0  0  0  0  0  0  0  0  0
    9.1787   -1.5945   -1.8766 H   0  0  0  0  0  0  0  0  0  0  0  0
    7.8145   -3.2287    1.3073 H   0  0  0  0  0  0  0  0  0  0  0  0
    6.0633   -2.9951    1.5192 H   0  0  0  0  0  0  0  0  0  0  0  0
    6.7927   -2.8752   -0.1115 H   0  0  0  0  0  0  0  0  0  0  0  0
    4.8127   -1.6500   -0.0031 H   0  0  0  0  0  0  0  0  0  0  0  0
   -0.0059   -1.3961   -1.7015 H   0  0  0  0  0  0  0  0  0  0  0  0
   -0.9241   -1.2730   -0.1865 H   0  0  0  0  0  0  0  0  0  0  0  0
    0.7432   -1.8673   -0.1705 H   0  0  0  0  0  0  0  0  0  0  0  0
   -5.0295    2.5142   -0.4243 H   0  0  0  0  0  0  0  0  0  0  0  0
   -4.4777    2.7007    2.5606 H   0  0  0  0  0  0  0  0  0  0  0  0
   -5.3169    1.3658    1.7596 H   0  0  0  0  0  0  0  0  0  0  0  0
   -6.0257    2.9797    1.7636 H   0  0  0  0  0  0  0  0  0  0  0  0
   -3.4337    4.5781    1.1451 H   0  0  0  0  0  0  0  0  0  0  0  0
   -3.6992    4.5865   -0.6070 H   0  0  0  0  0  0  0  0  0  0  0  0
   -5.0513    4.8072    0.4915 H   0  0  0  0  0  0  0  0  0  0  0  0
   -1.4105    3.0818    2.8939 H   0  0  0  0  0  0  0  0  0  0  0  0
  1  2  2  0  0  0  0
  2  3  1  0  0  0  0
  3  4  1  0  0  0  0
  4  5  4  0  0  0  0
  5  6  4  0  0  0  0
  6  7  1  0  0  0  0
  7  8  1  0  0  0  0
  6  9  4  0  0  0  0
  9 10  1  0  0  0  0
 10 11  1  0  0  0  0
  9 12  4  0  0  0  0
  4 13  4  0  0  0  0
 12 13  4  0  0  0  0
  3 14  1  0  0  0  0
 14 15  1  0  0  0  0
 15 16  1  0  0  0  0
 16 17  4  0  0  0  0
 17 18  1  0  0  0  0
 18 19  1  0  0  0  0
 19 20  1  0  0  0  0
 20 21  4  0  0  0  0
 21 22  4  0  0  0  0
 22 23  4  0  0  0  0
 24 25  2  0  0  0  0
 23 26  4  0  0  0  0
 26 27  1  0  0  0  0
 27 28  1  0  0  0  0
 20 29  4  0  0  0  0
 26 29  4  0  0  0  0
 17 30  1  0  0  0  0
  3 31  1  0  0  0  0
 31 32  1  0  0  0  0
 31 33  1  0  0  0  0
  5 34  1  0  0  0  0
  8 35  1  0  0  0  0
  8 36  1  0  0  0  0
  8 37  1  0  0  0  0
 11 38  1  0  0  0  0
 11 39  1  0  0  0  0
 11 40  1  0  0  0  0
 12 41  1  0  0  0  0
 13 42  1  0  0  0  0
 14 43  1  0  0  0  0
 14 44  1  0  0  0  0
 15 45  1  0  0  0  0
 15 46  1  0  0  0  0
  2 47  1  0  0  0  0
 16 48  1  0  0  0  0
 18 49  1  0  0  0  0
 18 50  1  0  0  0  0
 19 51  1  0  0  0  0
 19 52  1  0  0  0  0
 21 53  1  0  0  0  0
 22 54  1  0  0  0  0
 23 55  1  0  0  0  0
 25 56  1  0  0  0  0
 25 57  1  0  0  0  0
 28 58  1  0  0  0  0
 28 59  1  0  0  0  0
 28 60  1  0  0  0  0
 29 61  1  0  0  0  0
 30 62  1  0  0  0  0
 30 63  1  0  0  0  0
 30 64  1  0  0  0  0
 31 65  1  0  0  0  0
 32 66  1  0  0  0  0
 32 67  1  0  0  0  0
 32 68  1  0  0  0  0
 33 69  1  0  0  0  0
 33 70  1  0  0  0  0
 33 71  1  0  0  0  0
  1 72  1  0  0  0  0
M  CHG  1   1   1
M  END
