 xtb: 6.6.1 (8d0f1dd)
          04062411123D

 72 72  0     0  0            999 V2000
   -2.6711    3.0040    2.6713 N   0  0  0  0  0  0  0  0  0  0  0  0
   -2.4258    2.0813    1.8649 C   0  0  0  0  0  0  0  0  0  0  0  0
   -3.2189    1.8383    0.6071 C   0  0  0  0  0  0  0  0  0  0  0  0
   -3.8647    0.4636    0.6680 C   0  0  0  0  0  0  0  0  0  0  0  0
   -4.4630   -0.0719   -0.4732 C   0  0  0  0  0  0  0  0  0  0  0  0
   -5.0580   -1.3231   -0.4596 C   0  0  0  0  0  0  0  0  0  0  0  0
   -5.6654   -1.9083   -1.5119 O   0  0  0  0  0  0  0  0  0  0  0  0
   -5.8361   -1.1779   -2.7031 C   0  0  0  0  0  0  0  0  0  0  0  0
   -5.0454   -2.0906    0.7370 C   0  0  0  0  0  0  0  0  0  0  0  0
   -5.6128   -3.3087    0.6502 O   0  0  0  0  0  0  0  0  0  0  0  0
   -5.6739   -4.1221    1.7982 C   0  0  0  0  0  0  0  0  0  0  0  0
   -4.4702   -1.5410    1.8733 C   0  0  0  0  0  0  0  0  0  0  0  0
   -3.8953   -0.2795    1.8395 C   0  0  0  0  0  0  0  0  0  0  0  0
   -2.1612    1.8658   -0.5427 C   0  0  0  0  0  0  0  0  0  0  0  0
   -1.2925    0.6574   -0.5399 C   0  0  0  0  0  0  0  0  0  0  0  0
    0.0292    0.6942   -0.3037 C   0  0  0  0  0  0  0  0  0  0  0  0
    0.8822   -0.3895   -0.2474 N   0  0  0  0  0  0  0  0  0  0  0  0
    2.2815   -0.1346    0.0371 C   0  0  0  0  0  0  0  0  0  0  0  0
    3.1059   -0.0305   -1.2585 C   0  0  0  0  0  0  0  0  0  0  0  0
    4.5678    0.1257   -0.9435 C   0  0  0  0  0  0  0  0  0  0  0  0
    5.2007    1.3516   -1.0680 C   0  0  0  0  0  0  0  0  0  0  0  0
    6.5504    1.4874   -0.7800 C   0  0  0  0  0  0  0  0  0  0  0  0
    7.2946    0.3988   -0.3480 C   0  0  0  0  0  0  0  0  0  0  0  0
    8.6058    0.4100   -0.0514 O   0  0  0  0  0  0  0  0  0  0  0  0
    9.3395    1.6018   -0.2152 C   0  0  0  0  0  0  0  0  0  0  0  0
    6.6487   -0.8612   -0.1973 C   0  0  0  0  0  0  0  0  0  0  0  0
    7.4398   -1.8602    0.2394 O   0  0  0  0  0  0  0  0  0  0  0  0
    6.8964   -3.1461    0.4184 C   0  0  0  0  0  0  0  0  0  0  0  0
    5.3016   -0.9740   -0.5017 C   0  0  0  0  0  0  0  0  0  0  0  0
    0.5157   -1.6396   -0.4883 C   0  0  0  0  0  0  0  0  0  0  0  0
   -4.3288    2.8947    0.3501 C   0  0  0  0  0  0  0  0  0  0  0  0
   -5.3937    2.8530    1.4435 C   0  0  0  0  0  0  0  0  0  0  0  0
   -3.7922    4.3159    0.2036 C   0  0  0  0  0  0  0  0  0  0  0  0
   -4.4680    0.4989   -1.3872 H   0  0  0  0  0  0  0  0  0  0  0  0
   -6.3882   -0.2493   -2.5276 H   0  0  0  0  0  0  0  0  0  0  0  0
   -6.4170   -1.8221   -3.3607 H   0  0  0  0  0  0  0  0  0  0  0  0
   -4.8763   -0.9499   -3.1786 H   0  0  0  0  0  0  0  0  0  0  0  0
   -6.2481   -3.6454    2.5979 H   0  0  0  0  0  0  0  0  0  0  0  0
   -6.1802   -5.0329    1.4839 H   0  0  0  0  0  0  0  0  0  0  0  0
   -4.6737   -4.3722    2.1662 H   0  0  0  0  0  0  0  0  0  0  0  0
   -4.4715   -2.0891    2.8013 H   0  0  0  0  0  0  0  0  0  0  0  0
   -3.4806    0.1242    2.7495 H   0  0  0  0  0  0  0  0  0  0  0  0
   -2.6963    1.9205   -1.4932 H   0  0  0  0  0  0  0  0  0  0  0  0
   -1.5543    2.7658   -0.4415 H   0  0  0  0  0  0  0  0  0  0  0  0
   -0.8461   -0.0138   -3.5581 H   0  0  0  0  0  0  0  0  0  0  0  0
   -1.7987   -0.2791   -0.7141 H   0  0  0  0  0  0  0  0  0  0  0  0
   -1.5835    1.3795    1.9726 H   0  0  0  0  0  0  0  0  0  0  0  0
    0.5173    1.6422   -0.1241 H   0  0  0  0  0  0  0  0  0  0  0  0
    2.6724   -0.9513    0.6478 H   0  0  0  0  0  0  0  0  0  0  0  0
    2.3770    0.7928    0.6050 H   0  0  0  0  0  0  0  0  0  0  0  0
    2.7569    0.8219   -1.8426 H   0  0  0  0  0  0  0  0  0  0  0  0
    2.9472   -0.9360   -1.8484 H   0  0  0  0  0  0  0  0  0  0  0  0
    4.6474    2.2141   -1.4060 H   0  0  0  0  0  0  0  0  0  0  0  0
    7.0167    2.4515   -0.8993 H   0  0  0  0  0  0  0  0  0  0  0  0
    8.9733    2.3930    0.4468 H   0  0  0  0  0  0  0  0  0  0  0  0
    9.3107    1.9495   -1.2527 H   0  0  0  0  0  0  0  0  0  0  0  0
   10.3655    1.3536    0.0535 H   0  0  0  0  0  0  0  0  0  0  0  0
    7.7192   -3.7640    0.7728 H   0  0  0  0  0  0  0  0  0  0  0  0
    6.0983   -3.1435    1.1678 H   0  0  0  0  0  0  0  0  0  0  0  0
    6.5158   -3.5563   -0.5222 H   0  0  0  0  0  0  0  0  0  0  0  0
    4.8106   -1.9307   -0.4135 H   0  0  0  0  0  0  0  0  0  0  0  0
   -0.8198   -0.6866   -3.9467 H   0  0  0  0  0  0  0  0  0  0  0  0
   -0.4881   -1.8783   -0.7705 H   0  0  0  0  0  0  0  0  0  0  0  0
    1.2448   -2.4207   -0.4026 H   0  0  0  0  0  0  0  0  0  0  0  0
   -4.8088    2.6169   -0.5959 H   0  0  0  0  0  0  0  0  0  0  0  0
   -4.9657    3.1678    2.3902 H   0  0  0  0  0  0  0  0  0  0  0  0
   -5.8017    1.8513    1.5565 H   0  0  0  0  0  0  0  0  0  0  0  0
   -6.2068    3.5279    1.1889 H   0  0  0  0  0  0  0  0  0  0  0  0
   -3.2684    4.6148    1.1062 H   0  0  0  0  0  0  0  0  0  0  0  0
   -3.1248    4.4115   -0.6489 H   0  0  0  0  0  0  0  0  0  0  0  0
   -4.6257    4.9968    0.0520 H   0  0  0  0  0  0  0  0  0  0  0  0
   -2.0648    3.1064    3.4789 H   0  0  0  0  0  0  0  0  0  0  0  0
  1  2  2  0  0  0  0
  2  3  1  0  0  0  0
  3  4  1  0  0  0  0
  4  5  4  0  0  0  0
  5  6  4  0  0  0  0
  6  7  1  0  0  0  0
  7  8  1  0  0  0  0
  6  9  4  0  0  0  0
  9 10  1  0  0  0  0
 10 11  1  0  0  0  0
  9 12  4  0  0  0  0
  4 13  4  0  0  0  0
 12 13  4  0  0  0  0
  3 14  1  0  0  0  0
 14 15  1  0  0  0  0
 15 16  2  0  0  0  0
 16 17  1  0  0  0  0
 17 18  1  0  0  0  0
 18 19  1  0  0  0  0
 19 20  1  0  0  0  0
 20 21  4  0  0  0  0
 21 22  4  0  0  0  0
 22 23  4  0  0  0  0
 23 24  1  0  0  0  0
 24 25  1  0  0  0  0
 23 26  4  0  0  0  0
 26 27  1  0  0  0  0
 27 28  1  0  0  0  0
 20 29  4  0  0  0  0
 26 29  4  0  0  0  0
 17 30  4  0  0  0  0
  3 31  1  0  0  0  0
 31 32  1  0  0  0  0
 31 33  1  0  0  0  0
  5 34  1  0  0  0  0
  8 35  1  0  0  0  0
  8 36  1  0  0  0  0
  8 37  1  0  0  0  0
 11 38  1  0  0  0  0
 11 39  1  0  0  0  0
 11 40  1  0  0  0  0
 12 41  1  0  0  0  0
 13 42  1  0  0  0  0
 14 43  1  0  0  0  0
 14 44  1  0  0  0  0
 15 46  1  0  0  0  0
  2 47  1  0  0  0  0
 16 48  1  0  0  0  0
 18 49  1  0  0  0  0
 18 50  1  0  0  0  0
 19 51  1  0  0  0  0
 19 52  1  0  0  0  0
 21 53  1  0  0  0  0
 22 54  1  0  0  0  0
 25 55  1  0  0  0  0
 25 56  1  0  0  0  0
 25 57  1  0  0  0  0
 28 58  1  0  0  0  0
 28 59  1  0  0  0  0
 28 60  1  0  0  0  0
 29 61  1  0  0  0  0
 45 62  1  0  0  0  0
 30 63  1  0  0  0  0
 30 64  1  0  0  0  0
 31 65  1  0  0  0  0
 32 66  1  0  0  0  0
 32 67  1  0  0  0  0
 32 68  1  0  0  0  0
 33 69  1  0  0  0  0
 33 70  1  0  0  0  0
 33 71  1  0  0  0  0
  1 72  1  0  0  0  0
M  CHG  1   1   1
M  END
