 xtb: 6.6.1 (8d0f1dd)
          06052419583D

 25 24  0     0  0            999 V2000
    3.2813    1.1907   -0.0191 C   0  0  0  0  0  0  0  0  0  0  0  0
    2.3381    0.1052    0.0009 N   0  0  0  0  0  0  0  0  0  0  0  0
    2.6717   -1.1832   -0.0103 C   0  0  0  0  0  0  0  0  0  0  0  0
    1.5656   -1.9404    0.0395 N   0  0  0  0  0  0  0  0  0  0  0  0
    0.4399   -1.1068    0.0860 C   0  0  0  0  0  0  0  0  0  0  0  0
    0.9736    0.2123    0.0621 C   0  0  0  0  0  0  0  0  0  0  0  0
    0.2191    1.4706    0.0542 C   0  0  0  0  0  0  0  0  0  0  0  0
    0.7880    2.5690   -0.0273 O   0  0  0  0  0  0  0  0  0  0  0  0
   -1.0899    1.2916    0.1319 N   0  0  0  0  0  0  0  0  0  0  0  0
   -2.0454    2.3089    0.1398 C   0  0  0  0  0  0  0  0  0  0  0  0
   -3.9477   -1.1249   -0.8962 C   0  0  0  0  0  0  0  0  0  0  0  0
   -4.2826   -0.0799   -0.6385 O   0  0  0  0  0  0  0  0  0  0  0  0
   -0.7943   -1.4527    0.1352 N   0  0  0  0  0  0  0  0  0  0  0  0
   -1.3206   -2.7595    0.1557 C   0  0  0  0  0  0  0  0  0  0  0  0
    3.7606    1.2925    0.9568 H   0  0  0  0  0  0  0  0  0  0  0  0
    4.0467    1.0096   -0.7726 H   0  0  0  0  0  0  0  0  0  0  0  0
    2.7494    2.1181   -0.2401 H   0  0  0  0  0  0  0  0  0  0  0  0
    3.6773   -1.5560   -0.0562 H   0  0  0  0  0  0  0  0  0  0  0  0
   -1.5932    3.3103    0.1780 H   0  0  0  0  0  0  0  0  0  0  0  0
   -2.6674    2.2334   -0.7608 H   0  0  0  0  0  0  0  0  0  0  0  0
   -2.7051    2.1734    1.0040 H   0  0  0  0  0  0  0  0  0  0  0  0
   -0.9656   -3.3365    1.0191 H   0  0  0  0  0  0  0  0  0  0  0  0
   -1.0815   -3.3101   -0.7623 H   0  0  0  0  0  0  0  0  0  0  0  0
   -2.4080   -2.6678    0.2164 H   0  0  0  0  0  0  0  0  0  0  0  0
    1.5505   -2.9494    0.0350 H   0  0  0  0  0  0  0  0  0  0  0  0
  1  2  1  0  0  0  0
  2  3  4  0  0  0  0
  3  4  4  0  0  0  0
  4  5  1  0  0  0  0
  2  6  1  0  0  0  0
  5  6  4  0  0  0  0
  6  7  1  0  0  0  0
  7  8  4  0  0  0  0
  7  9  4  0  0  0  0
  9 10  1  0  0  0  0
 11 12  3  0  0  0  0
  5 13  2  0  0  0  0
 13 14  1  0  0  0  0
  1 15  1  0  0  0  0
  1 16  1  0  0  0  0
  1 17  1  0  0  0  0
  3 18  1  0  0  0  0
 10 19  1  0  0  0  0
 10 20  1  0  0  0  0
 10 21  1  0  0  0  0
 14 22  1  0  0  0  0
 14 23  1  0  0  0  0
 14 24  1  0  0  0  0
  4 25  1  0  0  0  0
M  CHG  1   1   1
M  END
