 xtb: 6.6.1 (8d0f1dd)
          06052419583D

 25 26  0     0  0            999 V2000
    3.7054    0.7527    0.0177 C   0  0  0  0  0  0  0  0  0  0  0  0
    2.5757   -0.1384    0.0058 N   0  0  0  0  0  0  0  0  0  0  0  0
    2.6174   -1.4757    0.0066 C   0  0  0  0  0  0  0  0  0  0  0  0
    1.3515   -1.9705    0.0037 N   0  0  0  0  0  0  0  0  0  0  0  0
    0.4912   -0.9110    0.0014 C   0  0  0  0  0  0  0  0  0  0  0  0
    1.2588    0.2437    0.0031 C   0  0  0  0  0  0  0  0  0  0  0  0
    0.6247    1.5664   -0.0088 C   0  0  0  0  0  0  0  0  0  0  0  0
    1.2287    2.6156   -0.0175 O   0  0  0  0  0  0  0  0  0  0  0  0
   -0.7445    1.4642   -0.0117 N   0  0  0  0  0  0  0  0  0  0  0  0
   -3.4438    1.6072   -0.0066 C   0  0  0  0  0  0  0  0  0  0  0  0
   -1.4283    0.3714   -0.0095 C   0  0  0  0  0  0  0  0  0  0  0  0
   -2.7417    0.3672   -0.0143 O   0  0  0  0  0  0  0  0  0  0  0  0
   -0.8676   -0.9013   -0.0041 N   0  0  0  0  0  0  0  0  0  0  0  0
   -1.6391   -2.1266   -0.0009 C   0  0  0  0  0  0  0  0  0  0  0  0
    4.2492    0.6627    0.9595 H   0  0  0  0  0  0  0  0  0  0  0  0
    4.3825    0.5155   -0.8036 H   0  0  0  0  0  0  0  0  0  0  0  0
    3.3421    1.7765   -0.0881 H   0  0  0  0  0  0  0  0  0  0  0  0
    3.5084   -2.0680    0.0081 H   0  0  0  0  0  0  0  0  0  0  0  0
   -2.7553    2.4459   -0.0094 H   0  0  0  0  0  0  0  0  0  0  0  0
   -4.0774    1.6391   -0.8909 H   0  0  0  0  0  0  0  0  0  0  0  0
   -4.0612    1.6327    0.8882 H   0  0  0  0  0  0  0  0  0  0  0  0
   -1.4122   -2.7126    0.8914 H   0  0  0  0  0  0  0  0  0  0  0  0
   -1.4183   -2.7143   -0.8937 H   0  0  0  0  0  0  0  0  0  0  0  0
   -2.6957   -1.8740    0.0024 H   0  0  0  0  0  0  0  0  0  0  0  0
    1.1102   -2.9500    0.0024 H   0  0  0  0  0  0  0  0  0  0  0  0
  1  2  1  0  0  0  0
  2  3  4  0  0  0  0
  3  4  4  0  0  0  0
  4  5  1  0  0  0  0
  2  6  1  0  0  0  0
  5  6  4  0  0  0  0
  6  7  1  0  0  0  0
  7  8  2  0  0  0  0
  7  9  1  0  0  0  0
  9 11  4  0  0  0  0
 10 12  1  0  0  0  0
 11 12  1  0  0  0  0
  5 13  1  0  0  0  0
 11 13  1  0  0  0  0
 13 14  1  0  0  0  0
  1 15  1  0  0  0  0
  1 16  1  0  0  0  0
  1 17  1  0  0  0  0
  3 18  1  0  0  0  0
 10 19  1  0  0  0  0
 10 20  1  0  0  0  0
 10 21  1  0  0  0  0
 14 22  1  0  0  0  0
 14 23  1  0  0  0  0
 14 24  1  0  0  0  0
  4 25  1  0  0  0  0
M  CHG  1   1   1
M  END
