 xtb: 6.6.1 (8d0f1dd)
          04062411133D

 72 72  0     0  0            999 V2000
   -1.7211    2.7776    2.0949 N   0  0  0  0  0  0  0  0  0  0  0  0
   -1.8158    1.9983    1.1237 C   0  0  0  0  0  0  0  0  0  0  0  0
   -3.0337    1.8648    0.2501 C   0  0  0  0  0  0  0  0  0  0  0  0
   -3.5883    0.4548    0.3667 C   0  0  0  0  0  0  0  0  0  0  0  0
   -4.5351   -0.0030   -0.5521 C   0  0  0  0  0  0  0  0  0  0  0  0
   -5.0738   -1.2761   -0.4617 C   0  0  0  0  0  0  0  0  0  0  0  0
   -5.9846   -1.7998   -1.3075 O   0  0  0  0  0  0  0  0  0  0  0  0
   -6.5084   -1.0010   -2.3419 C   0  0  0  0  0  0  0  0  0  0  0  0
   -4.6595   -2.1392    0.5894 C   0  0  0  0  0  0  0  0  0  0  0  0
   -5.2274   -3.3614    0.5937 O   0  0  0  0  0  0  0  0  0  0  0  0
   -4.9217   -4.2563    1.6379 C   0  0  0  0  0  0  0  0  0  0  0  0
   -3.7316   -1.6724    1.5071 C   0  0  0  0  0  0  0  0  0  0  0  0
   -3.2045   -0.3919    1.3957 C   0  0  0  0  0  0  0  0  0  0  0  0
   -2.5375    2.1424   -1.1944 C   0  0  0  0  0  0  0  0  0  0  0  0
   -1.7547    0.9888   -1.8472 C   0  0  0  0  0  0  0  0  0  0  0  0
   -0.4161    0.7511   -1.2564 C   0  0  0  0  0  0  0  0  0  0  0  0
    0.0741   -0.4205   -0.9212 N   0  0  0  0  0  0  0  0  0  0  0  0
    1.5338   -0.6162   -0.7283 C   0  0  0  0  0  0  0  0  0  0  0  0
    2.0699   -1.2653   -1.9295 C   0  0  0  0  0  0  0  0  0  0  0  0
    4.9131    0.7202   -0.6760 C   0  0  0  0  0  0  0  0  0  0  0  0
    5.6498    1.8597   -0.7890 C   0  0  0  0  0  0  0  0  0  0  0  0
    6.9791    1.8005   -0.3604 C   0  0  0  0  0  0  0  0  0  0  0  0
    7.5023    0.6212    0.1523 C   0  0  0  0  0  0  0  0  0  0  0  0
    8.7656    0.4550    0.5955 O   0  0  0  0  0  0  0  0  0  0  0  0
    9.6626    1.5403    0.5416 C   0  0  0  0  0  0  0  0  0  0  0  0
    6.6874   -0.5435    0.2410 C   0  0  0  0  0  0  0  0  0  0  0  0
    7.2879   -1.6360    0.7464 O   0  0  0  0  0  0  0  0  0  0  0  0
    6.5583   -2.8329    0.8687 C   0  0  0  0  0  0  0  0  0  0  0  0
    5.3600   -0.4741   -0.1894 C   0  0  0  0  0  0  0  0  0  0  0  0
   -0.7251   -1.6229   -0.9440 C   0  0  0  0  0  0  0  0  0  0  0  0
   -4.1738    2.8602    0.6186 C   0  0  0  0  0  0  0  0  0  0  0  0
   -4.7122    2.5972    2.0230 C   0  0  0  0  0  0  0  0  0  0  0  0
   -3.7598    4.3237    0.4928 C   0  0  0  0  0  0  0  0  0  0  0  0
   -4.8652    0.6521   -1.3413 H   0  0  0  0  0  0  0  0  0  0  0  0
   -7.0146   -0.1146   -1.9479 H   0  0  0  0  0  0  0  0  0  0  0  0
   -7.2326   -1.6295   -2.8564 H   0  0  0  0  0  0  0  0  0  0  0  0
   -5.7301   -0.6955   -3.0490 H   0  0  0  0  0  0  0  0  0  0  0  0
   -5.1969   -3.8437    2.6131 H   0  0  0  0  0  0  0  0  0  0  0  0
   -5.5158   -5.1469    1.4424 H   0  0  0  0  0  0  0  0  0  0  0  0
   -3.8598   -4.5230    1.6400 H   0  0  0  0  0  0  0  0  0  0  0  0
   -3.4152   -2.2962    2.3270 H   0  0  0  0  0  0  0  0  0  0  0  0
   -2.5036   -0.0538    2.1432 H   0  0  0  0  0  0  0  0  0  0  0  0
   -3.3999    2.3581   -1.8245 H   0  0  0  0  0  0  0  0  0  0  0  0
   -1.9100    3.0343   -1.1798 H   0  0  0  0  0  0  0  0  0  0  0  0
   -2.3600    0.0843   -1.8382 H   0  0  0  0  0  0  0  0  0  0  0  0
   -1.5924    1.2757   -2.8939 H   0  0  0  0  0  0  0  0  0  0  0  0
   -0.9900    1.3527    0.7701 H   0  0  0  0  0  0  0  0  0  0  0  0
    0.2631    1.5913   -1.2188 H   0  0  0  0  0  0  0  0  0  0  0  0
    1.6561   -1.2296    0.1693 H   0  0  0  0  0  0  0  0  0  0  0  0
    1.9854    0.3644   -0.5605 H   0  0  0  0  0  0  0  0  0  0  0  0
    2.3154   -0.6730   -2.7896 H   0  0  0  0  0  0  0  0  0  0  0  0
    2.0234   -2.3307   -2.0414 H   0  0  0  0  0  0  0  0  0  0  0  0
    5.2499    2.7769   -1.1900 H   0  0  0  0  0  0  0  0  0  0  0  0
    7.5845    2.6889   -0.4400 H   0  0  0  0  0  0  0  0  0  0  0  0
    9.3131    2.3799    1.1505 H   0  0  0  0  0  0  0  0  0  0  0  0
    9.8234    1.8755   -0.4875 H   0  0  0  0  0  0  0  0  0  0  0  0
   10.5987    1.1636    0.9494 H   0  0  0  0  0  0  0  0  0  0  0  0
    7.2538   -3.5587    1.2867 H   0  0  0  0  0  0  0  0  0  0  0  0
    5.7079   -2.7141    1.5478 H   0  0  0  0  0  0  0  0  0  0  0  0
    6.2051   -3.1889   -0.1045 H   0  0  0  0  0  0  0  0  0  0  0  0
    4.7167   -1.3383   -0.1452 H   0  0  0  0  0  0  0  0  0  0  0  0
   -1.0147   -1.8977   -1.9598 H   0  0  0  0  0  0  0  0  0  0  0  0
   -1.6267   -1.4819   -0.3442 H   0  0  0  0  0  0  0  0  0  0  0  0
   -0.1456   -2.4390   -0.5195 H   0  0  0  0  0  0  0  0  0  0  0  0
   -4.9868    2.6734   -0.0929 H   0  0  0  0  0  0  0  0  0  0  0  0
   -3.9372    2.7840    2.7595 H   0  0  0  0  0  0  0  0  0  0  0  0
   -5.0600    1.5722    2.1265 H   0  0  0  0  0  0  0  0  0  0  0  0
   -5.5470    3.2632    2.2237 H   0  0  0  0  0  0  0  0  0  0  0  0
   -2.9284    4.5375    1.1573 H   0  0  0  0  0  0  0  0  0  0  0  0
   -3.4823    4.5826   -0.5254 H   0  0  0  0  0  0  0  0  0  0  0  0
   -4.5960    4.9556    0.7805 H   0  0  0  0  0  0  0  0  0  0  0  0
   -0.8377    2.8093    2.5944 H   0  0  0  0  0  0  0  0  0  0  0  0
  1  2  2  0  0  0  0
  2  3  1  0  0  0  0
  3  4  1  0  0  0  0
  4  5  4  0  0  0  0
  5  6  4  0  0  0  0
  6  7  1  0  0  0  0
  7  8  1  0  0  0  0
  6  9  4  0  0  0  0
  9 10  1  0  0  0  0
 10 11  1  0  0  0  0
  9 12  4  0  0  0  0
  4 13  4  0  0  0  0
 12 13  4  0  0  0  0
  3 14  1  0  0  0  0
 14 15  1  0  0  0  0
 15 16  1  0  0  0  0
 16 17  4  0  0  0  0
 17 18  1  0  0  0  0
 18 19  1  0  0  0  0
 20 21  4  0  0  0  0
 21 22  4  0  0  0  0
 22 23  4  0  0  0  0
 23 24  1  0  0  0  0
 24 25  1  0  0  0  0
 23 26  4  0  0  0  0
 26 27  1  0  0  0  0
 27 28  1  0  0  0  0
 20 29  4  0  0  0  0
 26 29  4  0  0  0  0
 17 30  1  0  0  0  0
  3 31  1  0  0  0  0
 31 32  1  0  0  0  0
 31 33  1  0  0  0  0
  5 34  1  0  0  0  0
  8 35  1  0  0  0  0
  8 36  1  0  0  0  0
  8 37  1  0  0  0  0
 11 38  1  0  0  0  0
 11 39  1  0  0  0  0
 11 40  1  0  0  0  0
 12 41  1  0  0  0  0
 13 42  1  0  0  0  0
 14 43  1  0  0  0  0
 14 44  1  0  0  0  0
 15 45  1  0  0  0  0
 15 46  1  0  0  0  0
  2 47  1  0  0  0  0
 16 48  1  0  0  0  0
 18 49  1  0  0  0  0
 18 50  1  0  0  0  0
 19 51  1  0  0  0  0
 19 52  1  0  0  0  0
 21 53  1  0  0  0  0
 22 54  1  0  0  0  0
 25 55  1  0  0  0  0
 25 56  1  0  0  0  0
 25 57  1  0  0  0  0
 28 58  1  0  0  0  0
 28 59  1  0  0  0  0
 28 60  1  0  0  0  0
 29 61  1  0  0  0  0
 30 62  1  0  0  0  0
 30 63  1  0  0  0  0
 30 64  1  0  0  0  0
 31 65  1  0  0  0  0
 32 66  1  0  0  0  0
 32 67  1  0  0  0  0
 32 68  1  0  0  0  0
 33 69  1  0  0  0  0
 33 70  1  0  0  0  0
 33 71  1  0  0  0  0
  1 72  1  0  0  0  0
M  CHG  1   1   1
M  END
