 xtb: 6.6.1 (8d0f1dd)
          06052419593D

 25 26  0     0  0            999 V2000
    3.1207    1.1983    0.1691 C   0  0  0  0  0  0  0  0  0  0  0  0
    2.1475    0.1410    0.0902 N   0  0  0  0  0  0  0  0  0  0  0  0
    2.3983   -1.1322   -0.1903 C   0  0  0  0  0  0  0  0  0  0  0  0
    1.2401   -1.8173   -0.2080 N   0  0  0  0  0  0  0  0  0  0  0  0
    0.2220   -0.9457    0.0762 C   0  0  0  0  0  0  0  0  0  0  0  0
    0.8039    0.2865    0.2825 C   0  0  0  0  0  0  0  0  0  0  0  0
    0.0910    1.5647    0.6197 C   0  0  0  0  0  0  0  0  0  0  0  0
    0.4205    2.6330    0.1278 O   0  0  0  0  0  0  0  0  0  0  0  0
   -1.5296    1.0405   -0.1790 N   0  0  0  0  0  0  0  0  0  0  0  0
   -2.1756    2.0104   -0.6972 C   0  0  0  0  0  0  0  0  0  0  0  0
   -2.0716   -0.2606   -0.0945 C   0  0  0  0  0  0  0  0  0  0  0  0
   -3.2423   -0.5047   -0.1734 O   0  0  0  0  0  0  0  0  0  0  0  0
   -1.1096   -1.2499    0.0754 N   0  0  0  0  0  0  0  0  0  0  0  0
   -1.5404   -2.6362    0.1191 C   0  0  0  0  0  0  0  0  0  0  0  0
    3.5056    1.2882    1.1863 H   0  0  0  0  0  0  0  0  0  0  0  0
    3.9460    0.9897   -0.5076 H   0  0  0  0  0  0  0  0  0  0  0  0
    2.6421    2.1393   -0.1046 H   0  0  0  0  0  0  0  0  0  0  0  0
    3.3674   -1.5530   -0.3725 H   0  0  0  0  0  0  0  0  0  0  0  0
   -1.6790    2.9731   -0.7108 H   0  0  0  0  0  0  0  0  0  0  0  0
   -3.1692    1.8941   -1.1109 H   0  0  0  0  0  0  0  0  0  0  0  0
   -0.3731    1.5074    1.6289 H   0  0  0  0  0  0  0  0  0  0  0  0
   -1.0562   -3.1529    0.9472 H   0  0  0  0  0  0  0  0  0  0  0  0
   -1.3266   -3.1462   -0.8223 H   0  0  0  0  0  0  0  0  0  0  0  0
   -2.6183   -2.6434    0.2747 H   0  0  0  0  0  0  0  0  0  0  0  0
    1.1467   -2.8058   -0.3950 H   0  0  0  0  0  0  0  0  0  0  0  0
  1  2  1  0  0  0  0
  2  3  4  0  0  0  0
  3  4  4  0  0  0  0
  4  5  1  0  0  0  0
  2  6  4  0  0  0  0
  5  6  4  0  0  0  0
  6  7  1  0  0  0  0
  7  8  2  0  0  0  0
  7  9  1  0  0  0  0
  9 10  2  0  0  0  0
  9 11  1  0  0  0  0
 11 12  2  0  0  0  0
  5 13  1  0  0  0  0
 11 13  1  0  0  0  0
 13 14  1  0  0  0  0
  1 15  1  0  0  0  0
  1 16  1  0  0  0  0
  1 17  1  0  0  0  0
  3 18  1  0  0  0  0
 10 19  1  0  0  0  0
 10 20  1  0  0  0  0
  7 21  1  0  0  0  0
 14 22  1  0  0  0  0
 14 23  1  0  0  0  0
 14 24  1  0  0  0  0
  4 25  1  0  0  0  0
M  CHG  1   1   1
M  END
