          24
 
C              3.14779384        1.08110162       -0.02887827
N              2.28194910        0.07539500       -0.00795282
C              2.54451810       -1.25136081       -0.01532660
N              1.37919289       -1.95477460       -0.00896940
C              0.34825678       -1.06807074        0.00231465
C              0.89424665        0.20438077        0.00696267
C              0.07224250        1.39242773        0.00253476
O              0.47444838        2.53102339        0.00356862
N             -1.28588134        1.06596349       -0.00334160
C             -2.23798130        2.16692962       -0.02017197
C             -1.85548967       -0.19369053       -0.00984803
O             -3.04218431       -0.36278552       -0.02257678
N             -0.97443466       -1.29854288       -0.00073739
C             -1.52939377       -2.63679937       -0.00729147
H              4.20345871        0.87556937       -0.06664871
H              2.76656364        2.08637889       -0.02015177
H              3.52003561       -1.69063513       -0.03090749
H             -1.67872168        3.09860184        0.02397292
H             -2.83490138        2.12804971       -0.93200936
H             -2.91196916        2.08634998        0.83297358
H             -1.24282694       -3.17549205        0.89715521
H             -1.19962618       -3.18438900       -0.89080521
H             -2.61504043       -2.54156791       -0.03294114
H              1.31238849       -2.96182369       -0.00849143
