 xtb: 6.6.1 (8d0f1dd)
          04062411143D

 72 74  0     0  0            999 V2000
   -2.0522    3.0788    2.1763 N   0  0  0  0  0  0  0  0  0  0  0  0
   -1.9183    2.3050    1.2050 C   0  0  0  0  0  0  0  0  0  0  0  0
   -2.9867    2.0168    0.1867 C   0  0  0  0  0  0  0  0  0  0  0  0
   -3.4138    0.5617    0.2979 C   0  0  0  0  0  0  0  0  0  0  0  0
   -4.2571    0.0113   -0.6697 C   0  0  0  0  0  0  0  0  0  0  0  0
   -4.6885   -1.3020   -0.5917 C   0  0  0  0  0  0  0  0  0  0  0  0
   -5.5159   -1.9036   -1.4728 O   0  0  0  0  0  0  0  0  0  0  0  0
   -6.1202   -1.1324   -2.4844 C   0  0  0  0  0  0  0  0  0  0  0  0
   -4.2497   -2.1202    0.4835 C   0  0  0  0  0  0  0  0  0  0  0  0
   -4.7009   -3.3918    0.4681 O   0  0  0  0  0  0  0  0  0  0  0  0
   -4.3715   -4.2462    1.5379 C   0  0  0  0  0  0  0  0  0  0  0  0
   -3.4190   -1.5667    1.4438 C   0  0  0  0  0  0  0  0  0  0  0  0
   -3.0121   -0.2406    1.3539 C   0  0  0  0  0  0  0  0  0  0  0  0
   -2.3341    2.2800   -1.1969 C   0  0  0  0  0  0  0  0  0  0  0  0
   -1.3662    1.1815   -1.6782 C   0  0  0  0  0  0  0  0  0  0  0  0
   -0.1042    1.1211   -0.9087 C   0  0  0  0  0  0  0  0  0  0  0  0
    0.4589    0.0107   -0.4397 N   0  0  0  0  0  0  0  0  0  0  0  0
    1.7444    0.0567    0.2169 C   0  0  0  0  0  0  0  0  0  0  0  0
    2.8630   -0.5537   -0.6367 C   0  0  0  0  0  0  0  0  0  0  0  0
    4.2024   -0.4052    0.0744 C   0  0  0  0  0  0  0  0  0  0  0  0
    4.8386    0.9660    0.1868 C   0  0  0  0  0  0  0  0  0  0  0  0
    5.9459    0.5904   -0.5082 C   0  0  0  0  0  0  0  0  0  0  0  0
    7.2982    0.1057   -0.2560 C   0  0  0  0  0  0  0  0  0  0  0  0
    8.4666    0.6793    0.0175 O   0  0  0  0  0  0  0  0  0  0  0  0
    8.4649    2.0941    0.0379 C   0  0  0  0  0  0  0  0  0  0  0  0
    6.8359   -1.1902   -0.2600 C   0  0  0  0  0  0  0  0  0  0  0  0
    7.3727   -2.3428    0.1434 O   0  0  0  0  0  0  0  0  0  0  0  0
    6.5871   -3.5023   -0.0472 C   0  0  0  0  0  0  0  0  0  0  0  0
    5.4510   -0.8215   -0.7837 C   0  0  0  0  0  0  0  0  0  0  0  0
   -0.1798   -1.2794   -0.5465 C   0  0  0  0  0  0  0  0  0  0  0  0
   -4.2531    2.9084    0.3527 C   0  0  0  0  0  0  0  0  0  0  0  0
   -4.9694    2.6203    1.6701 C   0  0  0  0  0  0  0  0  0  0  0  0
   -3.9574    4.4015    0.2424 C   0  0  0  0  0  0  0  0  0  0  0  0
   -4.5923    0.6261   -1.4885 H   0  0  0  0  0  0  0  0  0  0  0  0
   -6.6840   -0.2936   -2.0652 H   0  0  0  0  0  0  0  0  0  0  0  0
   -6.8047   -1.8066   -2.9954 H   0  0  0  0  0  0  0  0  0  0  0  0
   -5.3827   -0.7572   -3.2015 H   0  0  0  0  0  0  0  0  0  0  0  0
   -4.7301   -3.8506    2.4927 H   0  0  0  0  0  0  0  0  0  0  0  0
   -4.8748   -5.1873    1.3256 H   0  0  0  0  0  0  0  0  0  0  0  0
   -3.2918   -4.4187    1.5962 H   0  0  0  0  0  0  0  0  0  0  0  0
   -3.0896   -2.1559    2.2842 H   0  0  0  0  0  0  0  0  0  0  0  0
   -2.3923    0.1632    2.1394 H   0  0  0  0  0  0  0  0  0  0  0  0
   -3.1226    2.3775   -1.9425 H   0  0  0  0  0  0  0  0  0  0  0  0
   -1.8008    3.2306   -1.1557 H   0  0  0  0  0  0  0  0  0  0  0  0
   -1.8781    0.2212   -1.6831 H   0  0  0  0  0  0  0  0  0  0  0  0
   -1.1089    1.4295   -2.7162 H   0  0  0  0  0  0  0  0  0  0  0  0
   -0.9754    1.7779    0.9620 H   0  0  0  0  0  0  0  0  0  0  0  0
    0.4787    2.0270   -0.8335 H   0  0  0  0  0  0  0  0  0  0  0  0
    1.6744   -0.4833    1.1671 H   0  0  0  0  0  0  0  0  0  0  0  0
    1.9980    1.0962    0.4319 H   0  0  0  0  0  0  0  0  0  0  0  0
    2.9066   -0.0370   -1.5969 H   0  0  0  0  0  0  0  0  0  0  0  0
    2.6654   -1.6109   -0.8247 H   0  0  0  0  0  0  0  0  0  0  0  0
    4.5828    1.8372    0.7578 H   0  0  0  0  0  0  0  0  0  0  0  0
    5.2279   -1.1546   -1.7844 H   0  0  0  0  0  0  0  0  0  0  0  0
    7.8581    2.4712    0.8659 H   0  0  0  0  0  0  0  0  0  0  0  0
    8.0774    2.4969   -0.9024 H   0  0  0  0  0  0  0  0  0  0  0  0
    9.5002    2.3983    0.1724 H   0  0  0  0  0  0  0  0  0  0  0  0
    7.1588   -4.3269    0.3725 H   0  0  0  0  0  0  0  0  0  0  0  0
    5.6269   -3.4181    0.4701 H   0  0  0  0  0  0  0  0  0  0  0  0
    6.4088   -3.6837   -1.1108 H   0  0  0  0  0  0  0  0  0  0  0  0
    4.1677   -0.8883    1.0567 H   0  0  0  0  0  0  0  0  0  0  0  0
   -0.2292   -1.6084   -1.5865 H   0  0  0  0  0  0  0  0  0  0  0  0
   -1.1933   -1.2414   -0.1399 H   0  0  0  0  0  0  0  0  0  0  0  0
    0.3908   -2.0098    0.0211 H   0  0  0  0  0  0  0  0  0  0  0  0
   -4.9316    2.6375   -0.4642 H   0  0  0  0  0  0  0  0  0  0  0  0
   -4.3378    2.9017    2.5065 H   0  0  0  0  0  0  0  0  0  0  0  0
   -5.2233    1.5666    1.7576 H   0  0  0  0  0  0  0  0  0  0  0  0
   -5.8882    3.1987    1.7192 H   0  0  0  0  0  0  0  0  0  0  0  0
   -3.2645    4.7071    1.0200 H   0  0  0  0  0  0  0  0  0  0  0  0
   -3.5462    4.6637   -0.7288 H   0  0  0  0  0  0  0  0  0  0  0  0
   -4.8819    4.9576    0.3737 H   0  0  0  0  0  0  0  0  0  0  0  0
   -1.2512    3.2199    2.7841 H   0  0  0  0  0  0  0  0  0  0  0  0
  1  2  2  0  0  0  0
  2  3  1  0  0  0  0
  3  4  1  0  0  0  0
  4  5  4  0  0  0  0
  5  6  4  0  0  0  0
  6  7  1  0  0  0  0
  7  8  1  0  0  0  0
  6  9  4  0  0  0  0
  9 10  1  0  0  0  0
 10 11  1  0  0  0  0
  9 12  4  0  0  0  0
  4 13  4  0  0  0  0
 12 13  4  0  0  0  0
  3 14  1  0  0  0  0
 14 15  1  0  0  0  0
 15 16  1  0  0  0  0
 16 17  4  0  0  0  0
 17 18  1  0  0  0  0
 18 19  1  0  0  0  0
 19 20  1  0  0  0  0
 20 21  1  0  0  0  0
 21 22  2  0  0  0  0
 22 23  1  0  0  0  0
 23 24  1  0  0  0  0
 24 25  1  0  0  0  0
 23 26  4  0  0  0  0
 26 27  1  0  0  0  0
 27 28  1  0  0  0  0
 20 29  1  0  0  0  0
 22 29  1  0  0  0  0
 26 29  1  0  0  0  0
 17 30  1  0  0  0  0
  3 31  1  0  0  0  0
 31 32  1  0  0  0  0
 31 33  1  0  0  0  0
  5 34  1  0  0  0  0
  8 35  1  0  0  0  0
  8 36  1  0  0  0  0
  8 37  1  0  0  0  0
 11 38  1  0  0  0  0
 11 39  1  0  0  0  0
 11 40  1  0  0  0  0
 12 41  1  0  0  0  0
 13 42  1  0  0  0  0
 14 43  1  0  0  0  0
 14 44  1  0  0  0  0
 15 45  1  0  0  0  0
 15 46  1  0  0  0  0
  2 47  1  0  0  0  0
 16 48  1  0  0  0  0
 18 49  1  0  0  0  0
 18 50  1  0  0  0  0
 19 51  1  0  0  0  0
 19 52  1  0  0  0  0
 21 53  1  0  0  0  0
 29 54  1  0  0  0  0
 25 55  1  0  0  0  0
 25 56  1  0  0  0  0
 25 57  1  0  0  0  0
 28 58  1  0  0  0  0
 28 59  1  0  0  0  0
 28 60  1  0  0  0  0
 20 61  1  0  0  0  0
 30 62  1  0  0  0  0
 30 63  1  0  0  0  0
 30 64  1  0  0  0  0
 31 65  1  0  0  0  0
 32 66  1  0  0  0  0
 32 67  1  0  0  0  0
 32 68  1  0  0  0  0
 33 69  1  0  0  0  0
 33 70  1  0  0  0  0
 33 71  1  0  0  0  0
  1 72  1  0  0  0  0
M  CHG  1   1   1
M  END
