 xtb: 6.6.1 (8d0f1dd)
          06052419573D

 25 25  0     0  0            999 V2000
    3.1679    1.3082    0.0183 C   0  0  0  0  0  0  0  0  0  0  0  0
    2.2551    0.1936    0.0021 N   0  0  0  0  0  0  0  0  0  0  0  0
    2.5749   -1.1072   -0.0053 C   0  0  0  0  0  0  0  0  0  0  0  0
    1.4251   -1.8184   -0.0067 N   0  0  0  0  0  0  0  0  0  0  0  0
    0.3601   -0.9667    0.0007 C   0  0  0  0  0  0  0  0  0  0  0  0
    0.8889    0.3200    0.0072 C   0  0  0  0  0  0  0  0  0  0  0  0
    0.0242    1.4866   -0.0015 C   0  0  0  0  0  0  0  0  0  0  0  0
    0.3845    2.6380   -0.0143 O   0  0  0  0  0  0  0  0  0  0  0  0
   -1.3225    1.1202    0.0021 N   0  0  0  0  0  0  0  0  0  0  0  0
   -2.3098    2.1924   -0.0012 C   0  0  0  0  0  0  0  0  0  0  0  0
   -1.8627   -0.1519    0.0051 C   0  0  0  0  0  0  0  0  0  0  0  0
   -3.0447   -0.3513    0.0091 O   0  0  0  0  0  0  0  0  0  0  0  0
   -0.9527   -1.2343    0.0016 N   0  0  0  0  0  0  0  0  0  0  0  0
   -1.4689   -2.5849   -0.0029 C   0  0  0  0  0  0  0  0  0  0  0  0
    3.6622    1.3675    0.9895 H   0  0  0  0  0  0  0  0  0  0  0  0
    3.9324    1.1718   -0.7456 H   0  0  0  0  0  0  0  0  0  0  0  0
    2.6178    2.2295   -0.1603 H   0  0  0  0  0  0  0  0  0  0  0  0
    3.9543   -3.7698   -0.0363 H   0  0  0  0  0  0  0  0  0  0  0  0
   -1.7835    3.1434    0.0089 H   0  0  0  0  0  0  0  0  0  0  0  0
   -2.9355    2.1152   -0.8905 H   0  0  0  0  0  0  0  0  0  0  0  0
   -2.9520    2.1040    0.8752 H   0  0  0  0  0  0  0  0  0  0  0  0
   -1.1335   -3.1239    0.8844 H   0  0  0  0  0  0  0  0  0  0  0  0
   -1.1460   -3.1135   -0.9010 H   0  0  0  0  0  0  0  0  0  0  0  0
   -2.5568   -2.5241    0.0049 H   0  0  0  0  0  0  0  0  0  0  0  0
    1.3817   -2.8265   -0.0123 H   0  0  0  0  0  0  0  0  0  0  0  0
  1  2  1  0  0  0  0
  2  3  4  0  0  0  0
  3  4  4  0  0  0  0
  4  5  1  0  0  0  0
  2  6  1  0  0  0  0
  5  6  4  0  0  0  0
  6  7  1  0  0  0  0
  7  8  2  0  0  0  0
  7  9  1  0  0  0  0
  9 10  1  0  0  0  0
  9 11  1  0  0  0  0
 11 12  2  0  0  0  0
  5 13  4  0  0  0  0
 11 13  1  0  0  0  0
 13 14  1  0  0  0  0
  1 15  1  0  0  0  0
  1 16  1  0  0  0  0
  1 17  1  0  0  0  0
 10 19  1  0  0  0  0
 10 20  1  0  0  0  0
 10 21  1  0  0  0  0
 14 22  1  0  0  0  0
 14 23  1  0  0  0  0
 14 24  1  0  0  0  0
  4 25  1  0  0  0  0
M  CHG  1   1   1
M  END
