 xtb: 6.6.1 (8d0f1dd)
          06052419593D

 25 25  0     0  0            999 V2000
    3.1303    1.1542   -0.0489 C   0  0  0  0  0  0  0  0  0  0  0  0
    2.2194    0.0416   -0.0318 N   0  0  0  0  0  0  0  0  0  0  0  0
    2.5350   -1.2506   -0.0036 C   0  0  0  0  0  0  0  0  0  0  0  0
    1.4069   -1.9983    0.0222 N   0  0  0  0  0  0  0  0  0  0  0  0
    0.3395   -1.1512    0.0104 C   0  0  0  0  0  0  0  0  0  0  0  0
    0.8438    0.1422   -0.0225 C   0  0  0  0  0  0  0  0  0  0  0  0
   -0.0039    1.2967   -0.0530 C   0  0  0  0  0  0  0  0  0  0  0  0
    0.3311    2.4596   -0.1046 O   0  0  0  0  0  0  0  0  0  0  0  0
   -1.3923    0.9254   -0.0171 N   0  0  0  0  0  0  0  0  0  0  0  0
   -2.2907    1.9199   -0.0231 C   0  0  0  0  0  0  0  0  0  0  0  0
   -1.9079   -0.4064    0.0112 C   0  0  0  0  0  0  0  0  0  0  0  0
   -3.0897   -0.6147    0.0294 O   0  0  0  0  0  0  0  0  0  0  0  0
   -0.9776   -1.4408    0.0222 N   0  0  0  0  0  0  0  0  0  0  0  0
   -1.4488   -2.8130    0.0535 C   0  0  0  0  0  0  0  0  0  0  0  0
    3.6229    1.2562    0.9193 H   0  0  0  0  0  0  0  0  0  0  0  0
    3.8905    1.0098   -0.8157 H   0  0  0  0  0  0  0  0  0  0  0  0
    2.5674    2.0639   -0.2536 H   0  0  0  0  0  0  0  0  0  0  0  0
    3.5306   -1.6470   -0.0022 H   0  0  0  0  0  0  0  0  0  0  0  0
   -1.5122    4.7166    0.1308 H   0  0  0  0  0  0  0  0  0  0  0  0
   -1.9310    2.9483   -0.0162 H   0  0  0  0  0  0  0  0  0  0  0  0
   -3.3353    1.6685   -0.0024 H   0  0  0  0  0  0  0  0  0  0  0  0
   -1.1094   -3.3103    0.9624 H   0  0  0  0  0  0  0  0  0  0  0  0
   -1.0995   -3.3537   -0.8264 H   0  0  0  0  0  0  0  0  0  0  0  0
   -2.5375   -2.7911    0.0476 H   0  0  0  0  0  0  0  0  0  0  0  0
    1.3791   -3.0075    0.0435 H   0  0  0  0  0  0  0  0  0  0  0  0
  1  2  1  0  0  0  0
  2  3  4  0  0  0  0
  3  4  4  0  0  0  0
  4  5  1  0  0  0  0
  2  6  1  0  0  0  0
  5  6  4  0  0  0  0
  6  7  1  0  0  0  0
  7  8  2  0  0  0  0
  7  9  1  0  0  0  0
  9 10  4  0  0  0  0
  9 11  1  0  0  0  0
 11 12  2  0  0  0  0
  5 13  1  0  0  0  0
 11 13  1  0  0  0  0
 13 14  1  0  0  0  0
  1 15  1  0  0  0  0
  1 16  1  0  0  0  0
  1 17  1  0  0  0  0
  3 18  1  0  0  0  0
 10 20  1  0  0  0  0
 10 21  1  0  0  0  0
 14 22  1  0  0  0  0
 14 23  1  0  0  0  0
 14 24  1  0  0  0  0
  4 25  1  0  0  0  0
M  CHG  1   1   1
M  END
