          21
 
C              3.39884375        1.63503813        0.00465449
N              2.60693489        0.43258669        0.00282706
C              3.05412243       -0.81675317        0.00552361
N              2.02578319       -1.68117168        0.00346102
C              0.85852748       -0.96055388       -0.00045428
C              1.24091536        0.38864691       -0.00084092
C              0.22921754        1.42274061       -0.00208042
O              0.44759832        2.61877678       -0.00276465
N             -1.04427519        0.88246423       -0.00161589
C             -2.16601054        1.79880308        0.00381276
C             -1.37704957       -0.50043379       -0.00311436
O             -2.54518024       -0.81595464       -0.00461550
N             -0.36959582       -1.40785178       -0.00290267
H              4.02781180        1.67344260        0.89425960
H              4.03656642        1.67057528       -0.87880619
H              2.72669727        2.49320714       -0.00001164
H              4.09121816       -1.09405155        0.00924198
H             -1.77679029        2.81529661        0.01147256
H             -2.78272603        1.63531886       -0.88112033
H             -2.78369446        1.62164957        0.88534162
H              2.08457384       -2.69007322        0.00470433
