 xtb: 6.6.1 (8d0f1dd)
          06052419573D

 25 25  0     0  0            999 V2000
    3.4089    0.8356    0.5249 C   0  0  0  0  0  0  0  0  0  0  0  0
    2.0906    1.2557    0.4288 N   0  0  0  0  0  0  0  0  0  0  0  0
    1.8648   -2.3916   -0.9862 C   0  0  0  0  0  0  0  0  0  0  0  0
    1.6339   -1.7162    0.0795 N   0  0  0  0  0  0  0  0  0  0  0  0
    0.6251   -0.7036    0.1264 C   0  0  0  0  0  0  0  0  0  0  0  0
    0.9660    0.6955    0.2190 C   0  0  0  0  0  0  0  0  0  0  0  0
   -0.1725    1.6868    0.0782 C   0  0  0  0  0  0  0  0  0  0  0  0
    0.0158    2.8667    0.0992 O   0  0  0  0  0  0  0  0  0  0  0  0
   -1.4283    1.1345   -0.1165 N   0  0  0  0  0  0  0  0  0  0  0  0
   -2.5583    2.0425   -0.2990 C   0  0  0  0  0  0  0  0  0  0  0  0
   -1.7460   -0.1895   -0.1156 C   0  0  0  0  0  0  0  0  0  0  0  0
   -2.8545   -0.6219   -0.2294 O   0  0  0  0  0  0  0  0  0  0  0  0
   -0.6436   -1.1006    0.0507 N   0  0  0  0  0  0  0  0  0  0  0  0
   -1.0078   -2.5013    0.1093 C   0  0  0  0  0  0  0  0  0  0  0  0
    3.7682    1.1072    1.5257 H   0  0  0  0  0  0  0  0  0  0  0  0
    3.6214   -0.2205    0.3128 H   0  0  0  0  0  0  0  0  0  0  0  0
    3.9886    1.4731   -0.1559 H   0  0  0  0  0  0  0  0  0  0  0  0
    1.2396   -2.1918   -1.8561 H   0  0  0  0  0  0  0  0  0  0  0  0
   -2.1767    3.0594   -0.3334 H   0  0  0  0  0  0  0  0  0  0  0  0
   -3.0734    1.7982   -1.2269 H   0  0  0  0  0  0  0  0  0  0  0  0
   -3.2584    1.9313    0.5282 H   0  0  0  0  0  0  0  0  0  0  0  0
   -0.4354   -3.0194    0.8765 H   0  0  0  0  0  0  0  0  0  0  0  0
   -0.8414   -2.9879   -0.8541 H   0  0  0  0  0  0  0  0  0  0  0  0
   -2.0729   -2.5600    0.3338 H   0  0  0  0  0  0  0  0  0  0  0  0
    2.2065   -1.8640    0.9112 H   0  0  0  0  0  0  0  0  0  0  0  0
  1  2  1  0  0  0  0
  3  4  2  0  0  0  0
  4  5  1  0  0  0  0
  2  6  2  0  0  0  0
  5  6  1  0  0  0  0
  6  7  1  0  0  0  0
  7  8  2  0  0  0  0
  7  9  1  0  0  0  0
  9 10  1  0  0  0  0
  9 11  1  0  0  0  0
 11 12  2  0  0  0  0
  5 13  4  0  0  0  0
 11 13  1  0  0  0  0
 13 14  1  0  0  0  0
  1 15  1  0  0  0  0
  1 16  1  0  0  0  0
  1 17  1  0  0  0  0
  3 18  1  0  0  0  0
 10 19  1  0  0  0  0
 10 20  1  0  0  0  0
 10 21  1  0  0  0  0
 14 22  1  0  0  0  0
 14 23  1  0  0  0  0
 14 24  1  0  0  0  0
  4 25  1  0  0  0  0
M  CHG  1   1   1
M  END
