 xtb: 6.6.1 (8d0f1dd)
          06052420003D

 25 25  0     0  0            999 V2000
    3.2202    1.2027    0.0191 C   0  0  0  0  0  0  0  0  0  0  0  0
    2.2340    0.1600    0.0006 N   0  0  0  0  0  0  0  0  0  0  0  0
    2.4591   -1.1754   -0.0058 C   0  0  0  0  0  0  0  0  0  0  0  0
    1.3531   -1.8847   -0.0055 N   0  0  0  0  0  0  0  0  0  0  0  0
    0.3470   -0.9836    0.0023 C   0  0  0  0  0  0  0  0  0  0  0  0
    0.8817    0.3155    0.0070 C   0  0  0  0  0  0  0  0  0  0  0  0
    0.0416    1.4885   -0.0020 C   0  0  0  0  0  0  0  0  0  0  0  0
    0.4264    2.6358   -0.0153 O   0  0  0  0  0  0  0  0  0  0  0  0
   -1.3116    1.1488    0.0024 N   0  0  0  0  0  0  0  0  0  0  0  0
   -2.2798    2.2309   -0.0024 C   0  0  0  0  0  0  0  0  0  0  0  0
   -1.8617   -0.1276    0.0052 C   0  0  0  0  0  0  0  0  0  0  0  0
   -3.0529   -0.2964    0.0079 O   0  0  0  0  0  0  0  0  0  0  0  0
   -0.9782   -1.2126    0.0035 N   0  0  0  0  0  0  0  0  0  0  0  0
   -1.5001   -2.5575   -0.0011 C   0  0  0  0  0  0  0  0  0  0  0  0
    3.7231    1.2300    0.9882 H   0  0  0  0  0  0  0  0  0  0  0  0
    3.9676    1.0258   -0.7548 H   0  0  0  0  0  0  0  0  0  0  0  0
    2.7308    2.1617   -0.1517 H   0  0  0  0  0  0  0  0  0  0  0  0
    3.4417   -1.6056   -0.0119 H   0  0  0  0  0  0  0  0  0  0  0  0
   -1.7409    3.1760    0.0055 H   0  0  0  0  0  0  0  0  0  0  0  0
   -2.9110    2.1614   -0.8903 H   0  0  0  0  0  0  0  0  0  0  0  0
   -2.9270    2.1538    0.8730 H   0  0  0  0  0  0  0  0  0  0  0  0
   -1.1410   -3.0947    0.8775 H   0  0  0  0  0  0  0  0  0  0  0  0
   -1.1566   -3.0830   -0.8930 H   0  0  0  0  0  0  0  0  0  0  0  0
   -2.5878   -2.5071    0.0083 H   0  0  0  0  0  0  0  0  0  0  0  0
    1.7827   -4.7442   -0.0357 H   0  0  0  0  0  0  0  0  0  0  0  0
  1  2  1  0  0  0  0
  2  3  4  0  0  0  0
  3  4  4  0  0  0  0
  4  5  4  0  0  0  0
  2  6  4  0  0  0  0
  5  6  4  0  0  0  0
  6  7  1  0  0  0  0
  7  8  2  0  0  0  0
  7  9  1  0  0  0  0
  9 10  1  0  0  0  0
  9 11  1  0  0  0  0
 11 12  2  0  0  0  0
  5 13  4  0  0  0  0
 11 13  1  0  0  0  0
 13 14  1  0  0  0  0
  1 15  1  0  0  0  0
  1 16  1  0  0  0  0
  1 17  1  0  0  0  0
  3 18  1  0  0  0  0
 10 19  1  0  0  0  0
 10 20  1  0  0  0  0
 10 21  1  0  0  0  0
 14 22  1  0  0  0  0
 14 23  1  0  0  0  0
 14 24  1  0  0  0  0
M  CHG  1   1   1
M  END
