 xtb: 6.6.1 (8d0f1dd)
          06052419583D

 25 24  0     0  0            999 V2000
    3.4645    0.4236    0.0086 C   0  0  0  0  0  0  0  0  0  0  0  0
    2.5778   -0.7081    0.0151 N   0  0  0  0  0  0  0  0  0  0  0  0
    2.9594   -1.9916    0.0161 C   0  0  0  0  0  0  0  0  0  0  0  0
    1.8611   -2.7651    0.0273 N   0  0  0  0  0  0  0  0  0  0  0  0
    0.7616   -1.9206    0.0337 C   0  0  0  0  0  0  0  0  0  0  0  0
    1.2226   -0.6072    0.0250 C   0  0  0  0  0  0  0  0  0  0  0  0
    1.4058    3.2677    0.0256 C   0  0  0  0  0  0  0  0  0  0  0  0
    0.7254    4.1732    0.0033 O   0  0  0  0  0  0  0  0  0  0  0  0
   -3.1000    2.1331    0.1972 N   0  0  0  0  0  0  0  0  0  0  0  0
   -3.7342    3.3404   -0.1241 C   0  0  0  0  0  0  0  0  0  0  0  0
   -2.7236    1.0318    0.0181 C   0  0  0  0  0  0  0  0  0  0  0  0
   -2.2819   -0.0487    0.0052 O   0  0  0  0  0  0  0  0  0  0  0  0
   -0.5363   -2.3247    0.0460 N   0  0  0  0  0  0  0  0  0  0  0  0
   -1.0145   -3.5532    0.0668 C   0  0  0  0  0  0  0  0  0  0  0  0
    4.1196    0.3977    0.8798 H   0  0  0  0  0  0  0  0  0  0  0  0
    4.0803    0.4202   -0.8915 H   0  0  0  0  0  0  0  0  0  0  0  0
    2.8606    1.3312    0.0323 H   0  0  0  0  0  0  0  0  0  0  0  0
    3.9691   -2.3490    0.0107 H   0  0  0  0  0  0  0  0  0  0  0  0
   -2.9915    4.0562   -0.4817 H   0  0  0  0  0  0  0  0  0  0  0  0
   -4.4980    3.1945   -0.8893 H   0  0  0  0  0  0  0  0  0  0  0  0
   -4.1990    3.7334    0.7816 H   0  0  0  0  0  0  0  0  0  0  0  0
   -0.3656   -4.4092    0.0777 H   0  0  0  0  0  0  0  0  0  0  0  0
   -1.1927   -1.5382    0.0419 H   0  0  0  0  0  0  0  0  0  0  0  0
   -2.0768   -3.6951    0.0763 H   0  0  0  0  0  0  0  0  0  0  0  0
    1.8669   -3.7739    0.0297 H   0  0  0  0  0  0  0  0  0  0  0  0
  1  2  1  0  0  0  0
  2  3  4  0  0  0  0
  3  4  4  0  0  0  0
  4  5  1  0  0  0  0
  2  6  4  0  0  0  0
  5  6  4  0  0  0  0
  7  8  3  0  0  0  0
  9 10  1  0  0  0  0
  9 11  2  0  0  0  0
  9 12  1  0  0  0  0
 11 12  2  0  0  0  0
  5 13  1  0  0  0  0
 13 14  4  0  0  0  0
  1 15  1  0  0  0  0
  1 16  1  0  0  0  0
  1 17  1  0  0  0  0
  3 18  1  0  0  0  0
 10 19  1  0  0  0  0
 10 20  1  0  0  0  0
 10 21  1  0  0  0  0
 14 22  1  0  0  0  0
 13 23  1  0  0  0  0
 14 24  1  0  0  0  0
  4 25  1  0  0  0  0
M  CHG  1   1   1
M  END
