 xtb: 6.6.1 (8d0f1dd)
          04062411173D

 72 73  0     0  0            999 V2000
   -2.0398    2.9443    2.3114 N   0  0  0  0  0  0  0  0  0  0  0  0
   -1.9237    2.2199    1.3014 C   0  0  0  0  0  0  0  0  0  0  0  0
   -3.0151    1.9718    0.2968 C   0  0  0  0  0  0  0  0  0  0  0  0
   -3.4757    0.5251    0.3879 C   0  0  0  0  0  0  0  0  0  0  0  0
   -4.3214    0.0049   -0.5941 C   0  0  0  0  0  0  0  0  0  0  0  0
   -4.7797   -1.3005   -0.5378 C   0  0  0  0  0  0  0  0  0  0  0  0
   -5.6010   -1.8775   -1.4393 O   0  0  0  0  0  0  0  0  0  0  0  0
   -6.1398   -1.0968   -2.4801 C   0  0  0  0  0  0  0  0  0  0  0  0
   -4.3765   -2.1380    0.5374 C   0  0  0  0  0  0  0  0  0  0  0  0
   -4.8622   -3.3951    0.5062 O   0  0  0  0  0  0  0  0  0  0  0  0
   -4.5786   -4.2663    1.5760 C   0  0  0  0  0  0  0  0  0  0  0  0
   -3.5418   -1.6140    1.5115 C   0  0  0  0  0  0  0  0  0  0  0  0
   -3.0993   -0.2989    1.4373 C   0  0  0  0  0  0  0  0  0  0  0  0
   -2.3780    2.2406   -1.0913 C   0  0  0  0  0  0  0  0  0  0  0  0
   -1.4100    1.1443   -1.5696 C   0  0  0  0  0  0  0  0  0  0  0  0
   -0.0985    1.1499   -0.8823 C   0  0  0  0  0  0  0  0  0  0  0  0
    0.5460    0.0744   -0.4380 N   0  0  0  0  0  0  0  0  0  0  0  0
    1.9638    0.1276   -0.1777 C   0  0  0  0  0  0  0  0  0  0  0  0
    2.7648   -0.4425   -1.3730 C   0  0  0  0  0  0  0  0  0  0  0  0
    4.2315   -0.2526   -1.1653 C   0  0  0  0  0  0  0  0  0  0  0  0
    4.8454    0.9738   -1.5538 C   0  0  0  0  0  0  0  0  0  0  0  0
    6.1168    1.2089   -1.2256 C   0  0  0  0  0  0  0  0  0  0  0  0
    7.0020    0.3031   -0.4814 C   0  0  0  0  0  0  0  0  0  0  0  0
    7.2679    0.7895    0.8301 O   0  0  0  0  0  0  0  0  0  0  0  0
    8.2332    1.8101    0.8724 C   0  0  0  0  0  0  0  0  0  0  0  0
    6.3505   -1.0608   -0.3106 C   0  0  0  0  0  0  0  0  0  0  0  0
    7.2223   -1.9734    0.1115 O   0  0  0  0  0  0  0  0  0  0  0  0
    6.7938   -3.2961    0.3642 C   0  0  0  0  0  0  0  0  0  0  0  0
    5.0160   -1.2470   -0.5721 C   0  0  0  0  0  0  0  0  0  0  0  0
   -0.0825   -1.2230   -0.3715 C   0  0  0  0  0  0  0  0  0  0  0  0
   -4.2583    2.8897    0.4947 C   0  0  0  0  0  0  0  0  0  0  0  0
   -4.9691    2.5949    1.8133 C   0  0  0  0  0  0  0  0  0  0  0  0
   -3.9265    4.3768    0.4091 C   0  0  0  0  0  0  0  0  0  0  0  0
   -4.6365    0.6361   -1.4083 H   0  0  0  0  0  0  0  0  0  0  0  0
   -6.7084   -0.2470   -2.0907 H   0  0  0  0  0  0  0  0  0  0  0  0
   -6.8102   -1.7591   -3.0242 H   0  0  0  0  0  0  0  0  0  0  0  0
   -5.3601   -0.7367   -3.1594 H   0  0  0  0  0  0  0  0  0  0  0  0
   -4.9442   -3.8663    2.5262 H   0  0  0  0  0  0  0  0  0  0  0  0
   -5.1054   -5.1906    1.3470 H   0  0  0  0  0  0  0  0  0  0  0  0
   -3.5060   -4.4710    1.6539 H   0  0  0  0  0  0  0  0  0  0  0  0
   -3.2357   -2.2196    2.3490 H   0  0  0  0  0  0  0  0  0  0  0  0
   -2.4749    0.0824    2.2305 H   0  0  0  0  0  0  0  0  0  0  0  0
   -3.1735    2.3351   -1.8295 H   0  0  0  0  0  0  0  0  0  0  0  0
   -1.8475    3.1928   -1.0561 H   0  0  0  0  0  0  0  0  0  0  0  0
   -1.8951    0.1719   -1.5052 H   0  0  0  0  0  0  0  0  0  0  0  0
   -1.2103    1.3467   -2.6305 H   0  0  0  0  0  0  0  0  0  0  0  0
   -0.9812    1.7151    1.0091 H   0  0  0  0  0  0  0  0  0  0  0  0
    0.4619    2.0735   -0.8912 H   0  0  0  0  0  0  0  0  0  0  0  0
    2.1931   -0.4473    0.7229 H   0  0  0  0  0  0  0  0  0  0  0  0
    2.2653    1.1635   -0.0107 H   0  0  0  0  0  0  0  0  0  0  0  0
    2.4463    0.0825   -2.2766 H   0  0  0  0  0  0  0  0  0  0  0  0
    2.5356   -1.5033   -1.4864 H   0  0  0  0  0  0  0  0  0  0  0  0
    4.2582    1.7033   -2.0923 H   0  0  0  0  0  0  0  0  0  0  0  0
    7.9676    0.1649   -1.0033 H   0  0  0  0  0  0  0  0  0  0  0  0
    7.9046    2.6887    0.3056 H   0  0  0  0  0  0  0  0  0  0  0  0
    9.1924    1.4641    0.4694 H   0  0  0  0  0  0  0  0  0  0  0  0
    8.3507    2.0721    1.9219 H   0  0  0  0  0  0  0  0  0  0  0  0
    7.6875   -3.8448    0.6544 H   0  0  0  0  0  0  0  0  0  0  0  0
    6.0679   -3.3238    1.1812 H   0  0  0  0  0  0  0  0  0  0  0  0
    6.3599   -3.7490   -0.5316 H   0  0  0  0  0  0  0  0  0  0  0  0
    4.5545   -2.1987   -0.3508 H   0  0  0  0  0  0  0  0  0  0  0  0
   -0.1765   -1.6754   -1.3619 H   0  0  0  0  0  0  0  0  0  0  0  0
   -1.0762   -1.1399    0.0726 H   0  0  0  0  0  0  0  0  0  0  0  0
    0.5205   -1.8782    0.2534 H   0  0  0  0  0  0  0  0  0  0  0  0
   -4.9508    2.6502   -0.3206 H   0  0  0  0  0  0  0  0  0  0  0  0
   -4.3227    2.8447    2.6484 H   0  0  0  0  0  0  0  0  0  0  0  0
   -5.2490    1.5467    1.8839 H   0  0  0  0  0  0  0  0  0  0  0  0
   -5.8724    3.1955    1.8817 H   0  0  0  0  0  0  0  0  0  0  0  0
   -3.2143    4.6499    1.1817 H   0  0  0  0  0  0  0  0  0  0  0  0
   -3.5241    4.6485   -0.5631 H   0  0  0  0  0  0  0  0  0  0  0  0
   -4.8343    4.9535    0.5659 H   0  0  0  0  0  0  0  0  0  0  0  0
   -1.2273    3.0663    2.9074 H   0  0  0  0  0  0  0  0  0  0  0  0
  1  2  2  0  0  0  0
  2  3  1  0  0  0  0
  3  4  1  0  0  0  0
  4  5  4  0  0  0  0
  5  6  4  0  0  0  0
  6  7  1  0  0  0  0
  7  8  1  0  0  0  0
  6  9  4  0  0  0  0
  9 10  1  0  0  0  0
 10 11  1  0  0  0  0
  9 12  4  0  0  0  0
  4 13  4  0  0  0  0
 12 13  4  0  0  0  0
  3 14  1  0  0  0  0
 14 15  1  0  0  0  0
 15 16  1  0  0  0  0
 16 17  4  0  0  0  0
 17 18  1  0  0  0  0
 18 19  1  0  0  0  0
 19 20  1  0  0  0  0
 20 21  1  0  0  0  0
 21 22  2  0  0  0  0
 22 23  1  0  0  0  0
 23 24  1  0  0  0  0
 24 25  1  0  0  0  0
 23 26  1  0  0  0  0
 26 27  1  0  0  0  0
 27 28  1  0  0  0  0
 20 29  4  0  0  0  0
 26 29  4  0  0  0  0
 17 30  1  0  0  0  0
  3 31  1  0  0  0  0
 31 32  1  0  0  0  0
 31 33  1  0  0  0  0
  5 34  1  0  0  0  0
  8 35  1  0  0  0  0
  8 36  1  0  0  0  0
  8 37  1  0  0  0  0
 11 38  1  0  0  0  0
 11 39  1  0  0  0  0
 11 40  1  0  0  0  0
 12 41  1  0  0  0  0
 13 42  1  0  0  0  0
 14 43  1  0  0  0  0
 14 44  1  0  0  0  0
 15 45  1  0  0  0  0
 15 46  1  0  0  0  0
  2 47  1  0  0  0  0
 16 48  1  0  0  0  0
 18 49  1  0  0  0  0
 18 50  1  0  0  0  0
 19 51  1  0  0  0  0
 19 52  1  0  0  0  0
 21 53  1  0  0  0  0
 23 54  1  0  0  0  0
 25 55  1  0  0  0  0
 25 56  1  0  0  0  0
 25 57  1  0  0  0  0
 28 58  1  0  0  0  0
 28 59  1  0  0  0  0
 28 60  1  0  0  0  0
 29 61  1  0  0  0  0
 30 62  1  0  0  0  0
 30 63  1  0  0  0  0
 30 64  1  0  0  0  0
 31 65  1  0  0  0  0
 32 66  1  0  0  0  0
 32 67  1  0  0  0  0
 32 68  1  0  0  0  0
 33 69  1  0  0  0  0
 33 70  1  0  0  0  0
 33 71  1  0  0  0  0
  1 72  1  0  0  0  0
M  CHG  1   1   1
M  END
