          24
 
C              3.15877210        1.07075300        0.01929351
N              2.28945859        0.06685250        0.00899408
C              2.55352136       -1.25913116       -0.00123158
N              1.38758508       -1.96356196       -0.00322054
C              0.35662898       -1.07742168        0.00651008
C              0.90194833        0.19510924        0.01078742
C              0.07827485        1.38172250        0.01147241
O              0.47862748        2.52232194        0.00610784
N             -1.27906284        1.05321978        0.00648388
C             -2.23565896        2.15138657        0.00151355
C             -1.84788878       -0.20650352        0.00882765
O             -3.03452941       -0.37708959        0.00859172
N             -0.96581578       -1.31065271        0.00845840
C             -1.51558786       -2.65031517        0.02087902
H              2.77494811        2.07543681        0.03285420
H              4.21098287        0.85798164        0.02157459
H              3.52961360       -1.69711440       -0.00627985
H             -1.67908311        3.08552551        0.00408669
H             -2.86596767        2.08746822       -0.88492974
H             -2.87516704        2.08852790        0.88217131
H             -1.18111585       -3.19140949        0.90682876
H             -1.22772278       -3.19254100       -0.88095898
H             -2.60114737       -2.55955090        0.04821171
H              1.32424008       -2.97097598       -0.01420997
