          71
 
N             -1.69438532        2.71767515        2.46760677
C             -1.73056969        2.03541337        1.42299880
C             -2.89694781        1.98800388        0.47610742
C             -3.48533267        0.58591297        0.46012023
C             -4.46740814        0.25905258       -0.47045815
C             -5.01290635       -1.01912206       -0.53213733
O             -5.96981712       -1.41551006       -1.37542670
C             -6.43815832       -0.53348525       -2.36965183
C             -4.56136708       -2.01841572        0.38387239
O             -5.13572830       -3.21900081        0.25103152
C             -4.71058144       -4.28612643        1.06760916
C             -3.59545818       -1.67317730        1.31964733
C             -3.07377166       -0.39095150        1.35989098
C             -2.32042445        2.33074788       -0.92453894
C             -1.47894356        1.21640041       -1.56879301
C             -0.12673122        1.07189777       -0.97569346
N              0.49453520       -0.07966466       -0.71957084
C              1.89014279       -0.00115355       -0.28932710
C              2.84185992       -0.22776195       -1.47502829
C              4.27165147       -0.15109349       -1.01519706
C              4.98090129        1.03778354       -1.09761504
C              6.29295420        1.11499061       -0.65865975
C              6.92327130        0.00204078       -0.11798650
O              8.18671595       -0.04241311        0.33503872
C              9.00375798        1.10067745        0.22554487
C              6.20042874       -1.22202718       -0.02036179
O              6.88584535       -2.24628968        0.51698385
C              6.27190440       -3.50805573        0.63535153
C              4.88964880       -1.27416003       -0.47065488
C             -0.01114863       -1.29623530       -0.84095412
C             -4.02968246        2.99006223        0.84935143
C             -4.66981955        2.63107012        2.18809457
C             -3.56944800        4.44450174        0.86989101
H             -4.79972264        1.00087302       -1.17762032
H             -6.91649060        0.34768328       -1.93071552
H             -7.17615454       -1.09771451       -2.93703929
H             -5.62748200       -0.22247114       -3.03517974
H             -4.90112441       -4.08130182        2.12541466
H             -5.29910173       -5.14661222        0.75492926
H             -3.64761763       -4.49899497        0.92079435
H             -3.23882452       -2.40509180        2.02623083
H             -2.33850384       -0.15898435        2.11476896
H             -3.15158673        2.55356705       -1.59267586
H             -1.71317277        3.23391179       -0.84131773
H             -2.03253901        0.27303601       -1.54869340
H             -1.35285439        1.48728221       -2.62516237
H             -0.88401551        1.42723709        1.05712828
H              0.46317630        1.96873315       -0.86331713
H              2.07022946       -0.76269922        0.47209359
H              2.08582022        0.97838345        0.15004629
H              2.65326388        0.53126219       -2.23640550
H              2.64008384       -1.20733171       -1.91235607
H              4.51447714        1.91444627       -1.52006336
H              6.82104879        2.05030004       -0.74389078
H              8.61918625        1.92714546        0.83055902
H              9.10235986        1.42358164       -0.81468395
H              9.97835733        0.79969724        0.60468723
H              7.02462775       -4.15862819        1.07665726
H              5.39823910       -3.46810463        1.29371515
H              5.97845835       -3.90443386       -0.34134286
H              4.33905795       -2.20014823       -0.41587803
H             -1.01729118       -1.46079684       -1.19344986
H              0.60118649       -2.13713608       -0.58904557
H             -4.79738915        2.89166377        0.07351183
H             -3.94522758        2.74186351        2.98905870
H             -5.03961018        1.60837041        2.18555112
H             -5.50561776        3.29774208        2.38421988
H             -2.78307716        4.58148502        1.60613593
H             -3.21185360        4.77057388       -0.10306932
H             -4.40733970        5.07936704        1.14647163
H             -0.84831135        2.70694912        3.02756430
