 xtb: 6.6.1 (8d0f1dd)
          06052420003D

 25 26  0     0  0            999 V2000
    2.7211    0.5300   -0.2800 C   0  0  0  0  0  0  0  0  0  0  0  0
    1.7090   -0.5041   -0.1006 N   0  0  0  0  0  0  0  0  0  0  0  0
    2.1576   -1.7658    0.2681 C   0  0  0  0  0  0  0  0  0  0  0  0
    1.4275   -2.5611    0.9098 N   0  0  0  0  0  0  0  0  0  0  0  0
    0.4153   -0.1343   -0.0903 C   0  0  0  0  0  0  0  0  0  0  0  0
    0.6814    2.3020    0.9236 C   0  0  0  0  0  0  0  0  0  0  0  0
   -0.0659    1.2339    0.1901 C   0  0  0  0  0  0  0  0  0  0  0  0
    0.5423    2.4077   -0.3471 O   0  0  0  0  0  0  0  0  0  0  0  0
   -1.4734    1.1539    0.1468 N   0  0  0  0  0  0  0  0  0  0  0  0
   -2.3737    2.2508    0.4123 C   0  0  0  0  0  0  0  0  0  0  0  0
   -1.8702   -0.1160   -0.1118 C   0  0  0  0  0  0  0  0  0  0  0  0
   -2.9665   -0.5659   -0.2187 O   0  0  0  0  0  0  0  0  0  0  0  0
   -0.6618   -0.8945   -0.2679 N   0  0  0  0  0  0  0  0  0  0  0  0
   -0.7847   -2.2604   -0.6819 C   0  0  0  0  0  0  0  0  0  0  0  0
    2.7670    1.1804    0.6001 H   0  0  0  0  0  0  0  0  0  0  0  0
    3.6951    0.0633   -0.4122 H   0  0  0  0  0  0  0  0  0  0  0  0
    2.5032    1.1336   -1.1619 H   0  0  0  0  0  0  0  0  0  0  0  0
    3.2020   -1.9324   -0.0059 H   0  0  0  0  0  0  0  0  0  0  0  0
   -2.1030    3.1178   -0.1947 H   0  0  0  0  0  0  0  0  0  0  0  0
   -3.3792    1.9190    0.1546 H   0  0  0  0  0  0  0  0  0  0  0  0
   -2.3391    2.5253    1.4709 H   0  0  0  0  0  0  0  0  0  0  0  0
   -0.4225   -2.9297    0.1052 H   0  0  0  0  0  0  0  0  0  0  0  0
   -0.2077   -2.4417   -1.5888 H   0  0  0  0  0  0  0  0  0  0  0  0
   -1.8449   -2.4425   -0.8641 H   0  0  0  0  0  0  0  0  0  0  0  0
    1.8314   -3.4509    1.1756 H   0  0  0  0  0  0  0  0  0  0  0  0
  1  2  1  0  0  0  0
  2  3  1  0  0  0  0
  3  4  2  0  0  0  0
  2  5  4  0  0  0  0
  5  7  1  0  0  0  0
  6  7  1  0  0  0  0
  6  8  4  0  0  0  0
  7  8  1  0  0  0  0
  7  9  1  0  0  0  0
  9 10  1  0  0  0  0
  9 11  1  0  0  0  0
 11 12  2  0  0  0  0
  5 13  4  0  0  0  0
 11 13  1  0  0  0  0
 13 14  1  0  0  0  0
  1 15  1  0  0  0  0
  1 16  1  0  0  0  0
  1 17  1  0  0  0  0
  3 18  1  0  0  0  0
 10 19  1  0  0  0  0
 10 20  1  0  0  0  0
 10 21  1  0  0  0  0
 14 22  1  0  0  0  0
 14 23  1  0  0  0  0
 14 24  1  0  0  0  0
  4 25  1  0  0  0  0
M  CHG  1   1   1
M  END
