 xtb: 6.6.1 (8d0f1dd)
          04062411143D

 72 72  0     0  0            999 V2000
   -1.9328    2.8269    2.2525 N   0  0  0  0  0  0  0  0  0  0  0  0
   -1.8669    2.1357    1.2146 C   0  0  0  0  0  0  0  0  0  0  0  0
   -3.0067    1.9238    0.2565 C   0  0  0  0  0  0  0  0  0  0  0  0
   -3.4725    0.4773    0.3334 C   0  0  0  0  0  0  0  0  0  0  0  0
   -4.4140    0.0066   -0.5842 C   0  0  0  0  0  0  0  0  0  0  0  0
   -4.8876   -1.2935   -0.5343 C   0  0  0  0  0  0  0  0  0  0  0  0
   -5.8075   -1.8193   -1.3689 O   0  0  0  0  0  0  0  0  0  0  0  0
   -6.4371   -0.9850   -2.3127 C   0  0  0  0  0  0  0  0  0  0  0  0
   -4.3931   -2.1808    0.4600 C   0  0  0  0  0  0  0  0  0  0  0  0
   -4.9011   -3.4285    0.4269 O   0  0  0  0  0  0  0  0  0  0  0  0
   -4.5149   -4.3538    1.4162 C   0  0  0  0  0  0  0  0  0  0  0  0
   -3.4573   -1.7082    1.3660 C   0  0  0  0  0  0  0  0  0  0  0  0
   -3.0075   -0.3948    1.3053 C   0  0  0  0  0  0  0  0  0  0  0  0
   -2.4423    2.2210   -1.1580 C   0  0  0  0  0  0  0  0  0  0  0  0
   -1.5068    1.1320   -1.7133 C   0  0  0  0  0  0  0  0  0  0  0  0
   -0.1694    1.1253   -1.0810 C   0  0  0  0  0  0  0  0  0  0  0  0
    0.5026    0.0409   -0.7081 N   0  0  0  0  0  0  0  0  0  0  0  0
    1.8799    0.1421   -0.2875 C   0  0  0  0  0  0  0  0  0  0  0  0
    2.8572   -0.2654   -1.4077 C   0  0  0  0  0  0  0  0  0  0  0  0
    4.2742   -0.0595   -0.9497 C   0  0  0  0  0  0  0  0  0  0  0  0
    4.9136    1.1566   -1.1581 C   0  0  0  0  0  0  0  0  0  0  0  0
    6.2158    1.3660   -0.7319 C   0  0  0  0  0  0  0  0  0  0  0  0
    6.9138    0.3640   -0.0715 C   0  0  0  0  0  0  0  0  0  0  0  0
    8.1742    0.4455    0.3834 O   0  0  0  0  0  0  0  0  0  0  0  0
    8.9102    1.6309    0.1717 C   0  0  0  0  0  0  0  0  0  0  0  0
    6.2569   -0.8750    0.1657 C   0  0  0  0  0  0  0  0  0  0  0  0
    7.0020   -1.7960    0.8190 O   0  0  0  0  0  0  0  0  0  0  0  0
    6.5849   -2.9521    1.2544 C   0  0  0  0  0  0  0  0  0  0  0  0
    4.9511   -1.0694   -0.2820 C   0  0  0  0  0  0  0  0  0  0  0  0
   -0.0803   -1.2783   -0.7687 C   0  0  0  0  0  0  0  0  0  0  0  0
   -4.2279    2.8480    0.5422 C   0  0  0  0  0  0  0  0  0  0  0  0
   -4.8828    2.5141    1.8803 C   0  0  0  0  0  0  0  0  0  0  0  0
   -3.8817    4.3336    0.4935 C   0  0  0  0  0  0  0  0  0  0  0  0
   -4.7938    0.6739   -1.3397 H   0  0  0  0  0  0  0  0  0  0  0  0
   -6.9451   -0.1453   -1.8290 H   0  0  0  0  0  0  0  0  0  0  0  0
   -7.1735   -1.6121   -2.8112 H   0  0  0  0  0  0  0  0  0  0  0  0
   -5.7259   -0.6064   -3.0541 H   0  0  0  0  0  0  0  0  0  0  0  0
   -4.7690   -3.9984    2.4192 H   0  0  0  0  0  0  0  0  0  0  0  0
   -5.0765   -5.2609    1.2020 H   0  0  0  0  0  0  0  0  0  0  0  0
   -3.4432   -4.5714    1.3658 H   0  0  0  0  0  0  0  0  0  0  0  0
   -3.0785   -2.3528    2.1427 H   0  0  0  0  0  0  0  0  0  0  0  0
   -2.3052   -0.0555    2.0509 H   0  0  0  0  0  0  0  0  0  0  0  0
   -3.2763    2.3345   -1.8493 H   0  0  0  0  0  0  0  0  0  0  0  0
   -1.9062    3.1704   -1.1305 H   0  0  0  0  0  0  0  0  0  0  0  0
   -1.9922    0.1603   -1.6410 H   0  0  0  0  0  0  0  0  0  0  0  0
   -1.3637    1.3536   -2.7793 H   0  0  0  0  0  0  0  0  0  0  0  0
   -0.9431    1.6337    0.8662 H   0  0  0  0  0  0  0  0  0  0  0  0
    0.3678    2.0617   -1.0426 H   0  0  0  0  0  0  0  0  0  0  0  0
    2.0373   -0.5008    0.5828 H   0  0  0  0  0  0  0  0  0  0  0  0
    2.0922    1.1723    0.0066 H   0  0  0  0  0  0  0  0  0  0  0  0
    2.6592    0.3486   -2.2875 H   0  0  0  0  0  0  0  0  0  0  0  0
    2.6971   -1.3109   -1.6727 H   0  0  0  0  0  0  0  0  0  0  0  0
    4.3994    1.9513   -1.6760 H   0  0  0  0  0  0  0  0  0  0  0  0
    6.6825    2.3178   -0.9244 H   0  0  0  0  0  0  0  0  0  0  0  0
    8.4496    2.4831    0.6792 H   0  0  0  0  0  0  0  0  0  0  0  0
    9.0161    1.8500   -0.8943 H   0  0  0  0  0  0  0  0  0  0  0  0
    9.8922    1.4425    0.6010 H   0  0  0  0  0  0  0  0  0  0  0  0
    7.3346   -3.5571    1.7278 H   0  0  0  0  0  0  0  0  0  0  0  0
    5.5775   -3.3125    1.1347 H   0  0  0  0  0  0  0  0  0  0  0  0
    6.1926   -5.9403    1.0059 H   0  0  0  0  0  0  0  0  0  0  0  0
    4.4696   -2.0234   -0.1341 H   0  0  0  0  0  0  0  0  0  0  0  0
   -0.2460   -1.5908   -1.8021 H   0  0  0  0  0  0  0  0  0  0  0  0
   -1.0361   -1.2975   -0.2388 H   0  0  0  0  0  0  0  0  0  0  0  0
    0.5913   -1.9901   -0.2955 H   0  0  0  0  0  0  0  0  0  0  0  0
   -4.9599    2.6477   -0.2484 H   0  0  0  0  0  0  0  0  0  0  0  0
   -4.1947    2.7202    2.6936 H   0  0  0  0  0  0  0  0  0  0  0  0
   -5.1782    1.4686    1.9238 H   0  0  0  0  0  0  0  0  0  0  0  0
   -5.7708    3.1265    2.0134 H   0  0  0  0  0  0  0  0  0  0  0  0
   -3.1370    4.5734    1.2461 H   0  0  0  0  0  0  0  0  0  0  0  0
   -3.5142    4.6335   -0.4844 H   0  0  0  0  0  0  0  0  0  0  0  0
   -4.7759    4.9142    0.7047 H   0  0  0  0  0  0  0  0  0  0  0  0
   -1.0934    2.9217    2.8156 H   0  0  0  0  0  0  0  0  0  0  0  0
  1  2  2  0  0  0  0
  2  3  1  0  0  0  0
  3  4  1  0  0  0  0
  4  5  4  0  0  0  0
  5  6  4  0  0  0  0
  6  7  1  0  0  0  0
  7  8  1  0  0  0  0
  6  9  4  0  0  0  0
  9 10  1  0  0  0  0
 10 11  1  0  0  0  0
  9 12  4  0  0  0  0
  4 13  4  0  0  0  0
 12 13  4  0  0  0  0
  3 14  1  0  0  0  0
 14 15  1  0  0  0  0
 15 16  1  0  0  0  0
 16 17  4  0  0  0  0
 17 18  1  0  0  0  0
 18 19  1  0  0  0  0
 19 20  1  0  0  0  0
 20 21  4  0  0  0  0
 21 22  4  0  0  0  0
 22 23  4  0  0  0  0
 23 24  1  0  0  0  0
 24 25  1  0  0  0  0
 23 26  4  0  0  0  0
 26 27  1  0  0  0  0
 27 28  4  0  0  0  0
 20 29  4  0  0  0  0
 26 29  4  0  0  0  0
 17 30  1  0  0  0  0
  3 31  1  0  0  0  0
 31 32  1  0  0  0  0
 31 33  1  0  0  0  0
  5 34  1  0  0  0  0
  8 35  1  0  0  0  0
  8 36  1  0  0  0  0
  8 37  1  0  0  0  0
 11 38  1  0  0  0  0
 11 39  1  0  0  0  0
 11 40  1  0  0  0  0
 12 41  1  0  0  0  0
 13 42  1  0  0  0  0
 14 43  1  0  0  0  0
 14 44  1  0  0  0  0
 15 45  1  0  0  0  0
 15 46  1  0  0  0  0
  2 47  1  0  0  0  0
 16 48  1  0  0  0  0
 18 49  1  0  0  0  0
 18 50  1  0  0  0  0
 19 51  1  0  0  0  0
 19 52  1  0  0  0  0
 21 53  1  0  0  0  0
 22 54  1  0  0  0  0
 25 55  1  0  0  0  0
 25 56  1  0  0  0  0
 25 57  1  0  0  0  0
 28 58  1  0  0  0  0
 28 59  1  0  0  0  0
 29 61  1  0  0  0  0
 30 62  1  0  0  0  0
 30 63  1  0  0  0  0
 30 64  1  0  0  0  0
 31 65  1  0  0  0  0
 32 66  1  0  0  0  0
 32 67  1  0  0  0  0
 32 68  1  0  0  0  0
 33 69  1  0  0  0  0
 33 70  1  0  0  0  0
 33 71  1  0  0  0  0
  1 72  1  0  0  0  0
M  CHG  1   1   1
M  END
