 xtb: 6.6.1 (8d0f1dd)
          04062411133D

 72 73  0     0  0            999 V2000
   -1.9731    2.8479    2.2801 N   0  0  0  0  0  0  0  0  0  0  0  0
   -1.8836    2.1458    1.2506 C   0  0  0  0  0  0  0  0  0  0  0  0
   -2.9973    1.9206    0.2664 C   0  0  0  0  0  0  0  0  0  0  0  0
   -3.4563    0.4712    0.3391 C   0  0  0  0  0  0  0  0  0  0  0  0
   -4.3756   -0.0101   -0.5956 C   0  0  0  0  0  0  0  0  0  0  0  0
   -4.8392   -1.3137   -0.5507 C   0  0  0  0  0  0  0  0  0  0  0  0
   -5.7404   -1.8503   -1.4016 O   0  0  0  0  0  0  0  0  0  0  0  0
   -6.3708   -1.0201   -2.3480 C   0  0  0  0  0  0  0  0  0  0  0  0
   -4.3564   -2.1936    0.4540 C   0  0  0  0  0  0  0  0  0  0  0  0
   -4.8528   -3.4482    0.4150 O   0  0  0  0  0  0  0  0  0  0  0  0
   -4.4873   -4.3588    1.4248 C   0  0  0  0  0  0  0  0  0  0  0  0
   -3.4428   -1.7115    1.3765 C   0  0  0  0  0  0  0  0  0  0  0  0
   -3.0035   -0.3941    1.3217 C   0  0  0  0  0  0  0  0  0  0  0  0
   -2.3933    2.2072   -1.1334 C   0  0  0  0  0  0  0  0  0  0  0  0
   -1.4217    1.1258   -1.6377 C   0  0  0  0  0  0  0  0  0  0  0  0
   -0.1073    1.1390   -0.9556 C   0  0  0  0  0  0  0  0  0  0  0  0
    0.5692    0.0579   -0.5669 N   0  0  0  0  0  0  0  0  0  0  0  0
    1.9556    0.1674   -0.1782 C   0  0  0  0  0  0  0  0  0  0  0  0
    2.8975   -0.1623   -1.3520 C   0  0  0  0  0  0  0  0  0  0  0  0
    4.3369   -0.0037   -0.9385 C   0  0  0  0  0  0  0  0  0  0  0  0
    5.0049    1.1435   -1.1832 C   0  0  0  0  0  0  0  0  0  0  0  0
    6.4264    1.3622   -0.7873 C   0  0  0  0  0  0  0  0  0  0  0  0
    7.0035    0.2013   -0.0383 C   0  0  0  0  0  0  0  0  0  0  0  0
    8.2359    0.2338    0.4243 O   0  0  0  0  0  0  0  0  0  0  0  0
    9.0807    1.2109    0.3047 C   0  0  0  0  0  0  0  0  0  0  0  0
    6.2659   -0.9906    0.1821 C   0  0  0  0  0  0  0  0  0  0  0  0
    6.9472   -1.9559    0.8387 O   0  0  0  0  0  0  0  0  0  0  0  0
    6.3325   -3.2062    1.0506 C   0  0  0  0  0  0  0  0  0  0  0  0
    4.9625   -1.0874   -0.2581 C   0  0  0  0  0  0  0  0  0  0  0  0
   -0.0045   -1.2642   -0.6358 C   0  0  0  0  0  0  0  0  0  0  0  0
   -4.2304    2.8395    0.5116 C   0  0  0  0  0  0  0  0  0  0  0  0
   -4.9136    2.5142    1.8378 C   0  0  0  0  0  0  0  0  0  0  0  0
   -3.8926    4.3269    0.4561 C   0  0  0  0  0  0  0  0  0  0  0  0
   -4.7461    0.6512   -1.3610 H   0  0  0  0  0  0  0  0  0  0  0  0
   -6.8886   -0.1848   -1.8668 H   0  0  0  0  0  0  0  0  0  0  0  0
   -7.0993   -1.6527   -2.8515 H   0  0  0  0  0  0  0  0  0  0  0  0
   -5.6587   -0.6348   -3.0852 H   0  0  0  0  0  0  0  0  0  0  0  0
   -4.7650   -3.9906    2.4169 H   0  0  0  0  0  0  0  0  0  0  0  0
   -5.0413   -5.2705    1.2104 H   0  0  0  0  0  0  0  0  0  0  0  0
   -3.4140   -4.5743    1.4022 H   0  0  0  0  0  0  0  0  0  0  0  0
   -3.0729   -2.3510    2.1616 H   0  0  0  0  0  0  0  0  0  0  0  0
   -2.3189   -0.0468    2.0801 H   0  0  0  0  0  0  0  0  0  0  0  0
   -3.2066    2.2925   -1.8533 H   0  0  0  0  0  0  0  0  0  0  0  0
   -1.8756    3.1667   -1.1050 H   0  0  0  0  0  0  0  0  0  0  0  0
   -1.8988    0.1494   -1.5717 H   0  0  0  0  0  0  0  0  0  0  0  0
   -1.2402    1.3360   -2.7004 H   0  0  0  0  0  0  0  0  0  0  0  0
   -0.9499    1.6447    0.9252 H   0  0  0  0  0  0  0  0  0  0  0  0
    0.4262    2.0771   -0.9173 H   0  0  0  0  0  0  0  0  0  0  0  0
    2.1507   -0.5141    0.6537 H   0  0  0  0  0  0  0  0  0  0  0  0
    2.1563    1.1858    0.1614 H   0  0  0  0  0  0  0  0  0  0  0  0
    2.6723    0.5128   -2.1789 H   0  0  0  0  0  0  0  0  0  0  0  0
    2.7175   -1.1860   -1.6838 H   0  0  0  0  0  0  0  0  0  0  0  0
    4.5295    1.9608   -1.7032 H   0  0  0  0  0  0  0  0  0  0  0  0
    7.0300    1.5378   -1.6966 H   0  0  0  0  0  0  0  0  0  0  0  0
    6.5084    2.2814   -0.1980 H   0  0  0  0  0  0  0  0  0  0  0  0
    8.8599    2.1289   -0.2099 H   0  0  0  0  0  0  0  0  0  0  0  0
   10.0367    1.0472    0.7638 H   0  0  0  0  0  0  0  0  0  0  0  0
    7.0832   -3.8198    1.5448 H   0  0  0  0  0  0  0  0  0  0  0  0
    5.4552   -3.1175    1.6986 H   0  0  0  0  0  0  0  0  0  0  0  0
    6.0463   -3.6757    0.1049 H   0  0  0  0  0  0  0  0  0  0  0  0
    4.3993   -1.9923   -0.1044 H   0  0  0  0  0  0  0  0  0  0  0  0
   -0.1522   -1.5809   -1.6709 H   0  0  0  0  0  0  0  0  0  0  0  0
   -0.9688   -1.2873   -0.1219 H   0  0  0  0  0  0  0  0  0  0  0  0
    0.6634   -1.9706   -0.1494 H   0  0  0  0  0  0  0  0  0  0  0  0
   -4.9421    2.6266   -0.2941 H   0  0  0  0  0  0  0  0  0  0  0  0
   -4.2461    2.7362    2.6639 H   0  0  0  0  0  0  0  0  0  0  0  0
   -5.1986    1.4660    1.8859 H   0  0  0  0  0  0  0  0  0  0  0  0
   -5.8108    3.1184    1.9436 H   0  0  0  0  0  0  0  0  0  0  0  0
   -3.1634    4.5776    1.2200 H   0  0  0  0  0  0  0  0  0  0  0  0
   -3.5088    4.6199   -0.5176 H   0  0  0  0  0  0  0  0  0  0  0  0
   -4.7941    4.9038    0.6452 H   0  0  0  0  0  0  0  0  0  0  0  0
   -1.1436    2.9488    2.8569 H   0  0  0  0  0  0  0  0  0  0  0  0
  1  2  2  0  0  0  0
  2  3  1  0  0  0  0
  3  4  1  0  0  0  0
  4  5  4  0  0  0  0
  5  6  4  0  0  0  0
  6  7  1  0  0  0  0
  7  8  1  0  0  0  0
  6  9  4  0  0  0  0
  9 10  1  0  0  0  0
 10 11  1  0  0  0  0
  9 12  4  0  0  0  0
  4 13  4  0  0  0  0
 12 13  4  0  0  0  0
  3 14  1  0  0  0  0
 14 15  1  0  0  0  0
 15 16  1  0  0  0  0
 16 17  4  0  0  0  0
 17 18  1  0  0  0  0
 18 19  1  0  0  0  0
 19 20  1  0  0  0  0
 20 21  2  0  0  0  0
 21 22  1  0  0  0  0
 22 23  1  0  0  0  0
 23 24  1  0  0  0  0
 24 25  4  0  0  0  0
 23 26  4  0  0  0  0
 26 27  1  0  0  0  0
 27 28  1  0  0  0  0
 20 29  4  0  0  0  0
 26 29  4  0  0  0  0
 17 30  1  0  0  0  0
  3 31  1  0  0  0  0
 31 32  1  0  0  0  0
 31 33  1  0  0  0  0
  5 34  1  0  0  0  0
  8 35  1  0  0  0  0
  8 36  1  0  0  0  0
  8 37  1  0  0  0  0
 11 38  1  0  0  0  0
 11 39  1  0  0  0  0
 11 40  1  0  0  0  0
 12 41  1  0  0  0  0
 13 42  1  0  0  0  0
 14 43  1  0  0  0  0
 14 44  1  0  0  0  0
 15 45  1  0  0  0  0
 15 46  1  0  0  0  0
  2 47  1  0  0  0  0
 16 48  1  0  0  0  0
 18 49  1  0  0  0  0
 18 50  1  0  0  0  0
 19 51  1  0  0  0  0
 19 52  1  0  0  0  0
 21 53  1  0  0  0  0
 22 54  1  0  0  0  0
 22 55  1  0  0  0  0
 25 56  1  0  0  0  0
 25 57  1  0  0  0  0
 28 58  1  0  0  0  0
 28 59  1  0  0  0  0
 28 60  1  0  0  0  0
 29 61  1  0  0  0  0
 30 62  1  0  0  0  0
 30 63  1  0  0  0  0
 30 64  1  0  0  0  0
 31 65  1  0  0  0  0
 32 66  1  0  0  0  0
 32 67  1  0  0  0  0
 32 68  1  0  0  0  0
 33 69  1  0  0  0  0
 33 70  1  0  0  0  0
 33 71  1  0  0  0  0
  1 72  1  0  0  0  0
M  CHG  1   1   1
M  END
