 xtb: 6.6.1 (8d0f1dd)
          04062411133D

 72 72  0     0  0            999 V2000
   -2.0586    2.6441    2.0311 N   0  0  0  0  0  0  0  0  0  0  0  0
   -1.8586    2.0564    0.9454 C   0  0  0  0  0  0  0  0  0  0  0  0
   -2.9526    1.7480   -0.0665 C   0  0  0  0  0  0  0  0  0  0  0  0
   -3.4473    0.3182    0.1503 C   0  0  0  0  0  0  0  0  0  0  0  0
   -4.4759   -0.1507   -0.6690 C   0  0  0  0  0  0  0  0  0  0  0  0
   -4.9693   -1.4374   -0.5389 C   0  0  0  0  0  0  0  0  0  0  0  0
   -5.9539   -1.9749   -1.2891 O   0  0  0  0  0  0  0  0  0  0  0  0
   -6.5814   -1.1824   -2.2693 C   0  0  0  0  0  0  0  0  0  0  0  0
   -4.4244   -2.2954    0.4536 C   0  0  0  0  0  0  0  0  0  0  0  0
   -4.9621   -3.5320    0.5128 O   0  0  0  0  0  0  0  0  0  0  0  0
   -4.5297   -4.4156    1.5209 C   0  0  0  0  0  0  0  0  0  0  0  0
   -3.4128   -1.8159    1.2691 C   0  0  0  0  0  0  0  0  0  0  0  0
   -2.9269   -0.5219    1.1176 C   0  0  0  0  0  0  0  0  0  0  0  0
   -2.3497    1.8928   -1.4852 C   0  0  0  0  0  0  0  0  0  0  0  0
   -1.3728    0.7735   -1.8823 C   0  0  0  0  0  0  0  0  0  0  0  0
   -0.0544    0.8605   -1.2134 C   0  0  0  0  0  0  0  0  0  0  0  0
    0.6197   -0.1740   -0.7107 N   0  0  0  0  0  0  0  0  0  0  0  0
    1.9963   -0.0157   -0.3072 C   0  0  0  0  0  0  0  0  0  0  0  0
    2.9755   -0.4586   -1.4123 C   0  0  0  0  0  0  0  0  0  0  0  0
    4.3882   -0.2271   -0.9565 C   0  0  0  0  0  0  0  0  0  0  0  0
    5.0109    0.9900   -1.1751 C   0  0  0  0  0  0  0  0  0  0  0  0
    6.3001    1.2192   -0.7187 C   0  0  0  0  0  0  0  0  0  0  0  0
    6.9902    0.2340   -0.0283 C   0  0  0  0  0  0  0  0  0  0  0  0
    8.2408    0.3469    0.4608 O   0  0  0  0  0  0  0  0  0  0  0  0
    8.9535    1.5434    0.2488 C   0  0  0  0  0  0  0  0  0  0  0  0
    6.3587   -1.0183    0.2019 C   0  0  0  0  0  0  0  0  0  0  0  0
    7.1009   -1.9211    0.8768 O   0  0  0  0  0  0  0  0  0  0  0  0
    6.5690   -3.2004    1.1227 C   0  0  0  0  0  0  0  0  0  0  0  0
    5.0698   -1.2241   -0.2622 C   0  0  0  0  0  0  0  0  0  0  0  0
    0.0777   -1.5108   -0.7066 C   0  0  0  0  0  0  0  0  0  0  0  0
   -4.0883    2.6974    0.0976 C   0  0  0  0  0  0  0  0  0  0  0  0
   -4.8574    2.7371    1.3395 C   0  0  0  0  0  0  0  0  0  0  0  0
   -4.8183    6.1216    1.9813 C   0  0  0  0  0  0  0  0  0  0  0  0
   -4.8992    0.5163   -1.4023 H   0  0  0  0  0  0  0  0  0  0  0  0
   -7.0547   -0.2990   -1.8301 H   0  0  0  0  0  0  0  0  0  0  0  0
   -7.3459   -1.8179   -2.7121 H   0  0  0  0  0  0  0  0  0  0  0  0
   -5.8759   -0.8715   -3.0469 H   0  0  0  0  0  0  0  0  0  0  0  0
   -4.7051   -4.0017    2.5182 H   0  0  0  0  0  0  0  0  0  0  0  0
   -5.1256   -5.3172    1.3948 H   0  0  0  0  0  0  0  0  0  0  0  0
   -3.4693   -4.6649    1.4093 H   0  0  0  0  0  0  0  0  0  0  0  0
   -2.9933   -2.4401    2.0413 H   0  0  0  0  0  0  0  0  0  0  0  0
   -2.1513   -0.1781    1.7845 H   0  0  0  0  0  0  0  0  0  0  0  0
   -3.1697    1.8855   -2.2036 H   0  0  0  0  0  0  0  0  0  0  0  0
   -1.8540    2.8636   -1.5607 H   0  0  0  0  0  0  0  0  0  0  0  0
   -1.8474   -0.1910   -1.7104 H   0  0  0  0  0  0  0  0  0  0  0  0
   -1.2026    0.8705   -2.9636 H   0  0  0  0  0  0  0  0  0  0  0  0
   -0.8726    1.7082    0.5907 H   0  0  0  0  0  0  0  0  0  0  0  0
    0.4727    1.8011   -1.2613 H   0  0  0  0  0  0  0  0  0  0  0  0
    2.1761   -0.6070    0.5947 H   0  0  0  0  0  0  0  0  0  0  0  0
    2.1850    1.0333   -0.0695 H   0  0  0  0  0  0  0  0  0  0  0  0
    2.7717    0.1213   -2.3142 H   0  0  0  0  0  0  0  0  0  0  0  0
    2.8191   -1.5144   -1.6371 H   0  0  0  0  0  0  0  0  0  0  0  0
    4.4979    1.7706   -1.7162 H   0  0  0  0  0  0  0  0  0  0  0  0
    6.7612    2.1741   -0.9101 H   0  0  0  0  0  0  0  0  0  0  0  0
    8.4592    2.3948    0.7269 H   0  0  0  0  0  0  0  0  0  0  0  0
    9.0842    1.7481   -0.8180 H   0  0  0  0  0  0  0  0  0  0  0  0
    9.9277    1.3880    0.7084 H   0  0  0  0  0  0  0  0  0  0  0  0
    7.3467   -3.7425    1.6572 H   0  0  0  0  0  0  0  0  0  0  0  0
    5.6710   -3.1494    1.7471 H   0  0  0  0  0  0  0  0  0  0  0  0
    6.3379   -3.7253    0.1905 H   0  0  0  0  0  0  0  0  0  0  0  0
    4.5834   -2.1733   -0.0998 H   0  0  0  0  0  0  0  0  0  0  0  0
   -0.0260   -1.9004   -1.7220 H   0  0  0  0  0  0  0  0  0  0  0  0
   -0.9026   -1.5245   -0.2251 H   0  0  0  0  0  0  0  0  0  0  0  0
    0.7453   -2.1643   -0.1509 H   0  0  0  0  0  0  0  0  0  0  0  0
   -4.2130    3.4780   -0.6353 H   0  0  0  0  0  0  0  0  0  0  0  0
   -4.1869    3.0772    2.1432 H   0  0  0  0  0  0  0  0  0  0  0  0
   -5.1892    1.7423    1.6418 H   0  0  0  0  0  0  0  0  0  0  0  0
   -5.7039    3.4150    1.2742 H   0  0  0  0  0  0  0  0  0  0  0  0
   -4.1277    5.7902    2.7250 H   0  0  0  0  0  0  0  0  0  0  0  0
   -4.4581    6.4462    1.0289 H   0  0  0  0  0  0  0  0  0  0  0  0
   -5.8586    6.2072    2.2146 H   0  0  0  0  0  0  0  0  0  0  0  0
   -1.2570    2.8084    2.6303 H   0  0  0  0  0  0  0  0  0  0  0  0
  1  2  2  0  0  0  0
  2  3  1  0  0  0  0
  3  4  1  0  0  0  0
  4  5  4  0  0  0  0
  5  6  4  0  0  0  0
  6  7  1  0  0  0  0
  7  8  1  0  0  0  0
  6  9  4  0  0  0  0
  9 10  1  0  0  0  0
 10 11  1  0  0  0  0
  9 12  4  0  0  0  0
  4 13  4  0  0  0  0
 12 13  4  0  0  0  0
  3 14  1  0  0  0  0
 14 15  1  0  0  0  0
 15 16  1  0  0  0  0
 16 17  4  0  0  0  0
 17 18  1  0  0  0  0
 18 19  1  0  0  0  0
 19 20  1  0  0  0  0
 20 21  4  0  0  0  0
 21 22  4  0  0  0  0
 22 23  4  0  0  0  0
 23 24  1  0  0  0  0
 24 25  1  0  0  0  0
 23 26  4  0  0  0  0
 26 27  1  0  0  0  0
 27 28  1  0  0  0  0
 20 29  4  0  0  0  0
 26 29  4  0  0  0  0
 17 30  1  0  0  0  0
  3 31  1  0  0  0  0
 31 32  1  0  0  0  0
  5 34  1  0  0  0  0
  8 35  1  0  0  0  0
  8 36  1  0  0  0  0
  8 37  1  0  0  0  0
 11 38  1  0  0  0  0
 11 39  1  0  0  0  0
 11 40  1  0  0  0  0
 12 41  1  0  0  0  0
 13 42  1  0  0  0  0
 14 43  1  0  0  0  0
 14 44  1  0  0  0  0
 15 45  1  0  0  0  0
 15 46  1  0  0  0  0
  2 47  1  0  0  0  0
 16 48  1  0  0  0  0
 18 49  1  0  0  0  0
 18 50  1  0  0  0  0
 19 51  1  0  0  0  0
 19 52  1  0  0  0  0
 21 53  1  0  0  0  0
 22 54  1  0  0  0  0
 25 55  1  0  0  0  0
 25 56  1  0  0  0  0
 25 57  1  0  0  0  0
 28 58  1  0  0  0  0
 28 59  1  0  0  0  0
 28 60  1  0  0  0  0
 29 61  1  0  0  0  0
 30 62  1  0  0  0  0
 30 63  1  0  0  0  0
 30 64  1  0  0  0  0
 31 65  1  0  0  0  0
 32 66  1  0  0  0  0
 32 67  1  0  0  0  0
 32 68  1  0  0  0  0
 33 69  1  0  0  0  0
 33 70  1  0  0  0  0
 33 71  1  0  0  0  0
  1 72  1  0  0  0  0
M  CHG  1   1   1
M  END
