          24
 
C              3.15130180        1.08012071        0.01371848
N              2.28402463        0.07482542        0.01261242
C              2.54609276       -1.25332265        0.01783005
N              1.38086115       -1.95554323        0.01513768
C              0.34997708       -1.06753470        0.01042176
C              0.89650298        0.20457790        0.00681610
C              0.07176815        1.39146957       -0.00028494
O              0.47134424        2.53078657       -0.01711112
N             -1.28563903        1.06261035        0.01492815
C             -2.24022010        2.16244927        0.03022468
C             -1.85485624       -0.19751062        0.01080169
O             -3.04142337       -0.36746741        0.01352177
N             -0.97196647       -1.30022474        0.00381636
C             -1.52247515       -2.64081986       -0.00586948
H              4.20269177        0.86617055        0.03333586
H              2.76833483        2.08593869        0.00126940
H              3.52315691       -1.68951491        0.03179390
H             -1.68255188        3.09545074       -0.00431389
H             -2.90753350        2.08575452       -0.82806146
H             -2.84301343        2.11619209        0.93761502
H             -1.20191805       -3.19243349        0.87822982
H             -1.22076054       -3.17060612       -0.90970883
H             -2.60781124       -2.54879817        0.00615162
H              1.31600687       -2.96285199        0.02420521
