          20
 
C             -4.07339836        0.06427714        1.02736992
C             -4.84418066       -0.22501483       -0.08863877
C             -5.00123231       -1.53721871       -0.51244672
O             -5.73149721       -1.93638791       -1.57088354
C             -6.45995340       -0.97944359       -2.30422891
C             -4.36073402       -2.57909217        0.21552721
O             -4.58478011       -3.82284802       -0.25352165
C             -4.08863319       -4.92871811        0.46306519
C             -3.58587456       -2.26194419        1.32167706
C             -3.44347111       -0.94127878        1.72959988
H             -5.33438872        0.57862455       -0.61484211
H             -7.18555466       -0.45824164       -1.67232742
H             -6.98883624       -1.54013108       -3.07233366
H             -5.79787185       -0.24969361       -2.78091143
H             -4.46557145       -4.94194281        1.49026417
H             -4.45360089       -5.80697616       -0.06594388
H             -2.99418393       -4.94221824        0.47488923
H             -3.09814079       -3.04240039        1.88283465
H             -2.85138088       -0.71530385        2.60285013
H             -4.00375570        1.12096874        1.35814274
