 xtb: 6.6.1 (8d0f1dd)
          06052419583D

 25 26  0     0  0            999 V2000
    2.3633    1.6640    0.1509 C   0  0  0  0  0  0  0  0  0  0  0  0
    1.5330    0.4912    0.0525 N   0  0  0  0  0  0  0  0  0  0  0  0
    1.9548   -0.6114   -0.4790 C   0  0  0  0  0  0  0  0  0  0  0  0
    1.2322   -1.7432   -0.5491 N   0  0  0  0  0  0  0  0  0  0  0  0
   -0.0061   -1.9094    0.0231 C   0  0  0  0  0  0  0  0  0  0  0  0
   -0.6568   -0.7371    0.5978 C   0  0  0  0  0  0  0  0  0  0  0  0
    0.1763    0.6106    0.7981 C   0  0  0  0  0  0  0  0  0  0  0  0
    0.3037    1.1134    1.9227 O   0  0  0  0  0  0  0  0  0  0  0  0
   -0.7684    1.2257   -0.2078 N   0  0  0  0  0  0  0  0  0  0  0  0
   -1.0587    2.6027   -0.4832 C   0  0  0  0  0  0  0  0  0  0  0  0
   -1.5274    0.1302   -0.3782 C   0  0  0  0  0  0  0  0  0  0  0  0
   -2.4784   -0.1437   -1.0386 O   0  0  0  0  0  0  0  0  0  0  0  0
   -0.6118   -3.0335   -0.1656 N   0  0  0  0  0  0  0  0  0  0  0  0
   -1.4274   -3.8809    0.2944 C   0  0  0  0  0  0  0  0  0  0  0  0
    2.2286    2.0856    1.1487 H   0  0  0  0  0  0  0  0  0  0  0  0
    3.4096    1.4208   -0.0140 H   0  0  0  0  0  0  0  0  0  0  0  0
    2.0369    2.4038   -0.5816 H   0  0  0  0  0  0  0  0  0  0  0  0
    2.9554   -0.6510   -0.8947 H   0  0  0  0  0  0  0  0  0  0  0  0
   -0.3803    2.9924   -1.2459 H   0  0  0  0  0  0  0  0  0  0  0  0
   -2.0841    2.6804   -0.8411 H   0  0  0  0  0  0  0  0  0  0  0  0
   -0.9411    3.1798    0.4352 H   0  0  0  0  0  0  0  0  0  0  0  0
   -1.5376   -4.0847    1.3573 H   0  0  0  0  0  0  0  0  0  0  0  0
   -1.9993   -4.4712   -0.4047 H   0  0  0  0  0  0  0  0  0  0  0  0
   -1.2045   -0.9569    1.5196 H   0  0  0  0  0  0  0  0  0  0  0  0
    1.6483   -2.5594   -0.9857 H   0  0  0  0  0  0  0  0  0  0  0  0
  1  2  1  0  0  0  0
  2  3  2  0  0  0  0
  3  4  4  0  0  0  0
  4  5  1  0  0  0  0
  5  6  1  0  0  0  0
  2  7  1  0  0  0  0
  6  7  1  0  0  0  0
  7  8  4  0  0  0  0
  7  9  1  0  0  0  0
  9 10  1  0  0  0  0
  6 11  1  0  0  0  0
  9 11  4  0  0  0  0
 11 12  2  0  0  0  0
  5 13  4  0  0  0  0
 13 14  2  0  0  0  0
  1 15  1  0  0  0  0
  1 16  1  0  0  0  0
  1 17  1  0  0  0  0
  3 18  1  0  0  0  0
 10 19  1  0  0  0  0
 10 20  1  0  0  0  0
 10 21  1  0  0  0  0
 14 22  1  0  0  0  0
 14 23  1  0  0  0  0
  6 24  1  0  0  0  0
  4 25  1  0  0  0  0
M  CHG  1   1   1
M  END
