          50
 
N             -2.03559019        2.74417265        2.74144231
C             -1.88388132        2.06023584        1.70721875
C             -2.88054364        1.99384357        0.58097829
C             -3.47361634        0.59682364        0.51112158
C             -4.26816788        0.23479135       -0.57830777
C             -4.83616064       -1.02503327       -0.67461848
O             -5.61697492       -1.45095891       -1.68820398
C             -6.00214527       -0.54033301       -2.69197825
C             -4.59826104       -1.97998486        0.35178084
O             -5.16790438       -3.18705418        0.16708937
C             -5.01422636       -4.17572135        1.15900476
C             -3.82190376       -1.60851141        1.43860839
C             -3.27069098       -0.33576819        1.51762383
C             -2.08634861        2.31050066       -0.71562045
C             -1.22744833        1.15658505       -1.26898996
C             -0.02150726        0.86205731       -0.45336079
N              0.37385789       -0.34116405       -0.05002165
C              1.49896883       -0.54825968        0.62208760
C             -0.46016917       -1.49659567       -0.33509860
C             -4.05456607        3.00635559        0.74142385
C             -4.91882112        2.67520770        1.95591740
C             -3.59135316        4.45799782        0.81899919
H             -4.45271569        0.95484501       -1.35815348
H             -6.53960227        0.31471426       -2.27118106
H             -6.66749184       -1.09598713       -3.34964951
H             -5.14075323       -0.18574019       -3.26730440
H             -5.43197320       -3.85154948        2.11664823
H             -5.56772686       -5.04017738        0.79807727
H             -3.96247083       -4.44882020        1.29262594
H             -3.64546616       -2.30256044        2.24414024
H             -2.69412150       -0.07559393        2.39155404
H             -2.79439657        2.59801845       -1.49292367
H             -1.44183132        3.16991204       -0.52615596
H             -1.85261581        0.27586737       -1.39822226
H             -0.89348345        1.47500484       -2.26516341
H             -0.98099839        1.46237429        1.49515636
H              0.65906263        1.67677404       -0.25778001
H              1.74477008       -1.52972765        0.96942710
H              2.15423558        0.27443743        0.82988137
H             -0.56034162       -1.63010406       -1.41193390
H             -1.45111354       -1.36830083        0.10346157
H             -0.00464084       -2.38935811        0.08514578
H             -4.67917198        2.89902373       -0.15309581
H             -4.33791662        2.78317735        2.86640631
H             -5.30402851        1.65977210        1.90076689
H             -5.76244844        3.35906471        2.00050585
H             -2.95523613        4.60449030        1.68647913
H             -3.05331396        4.76082034       -0.07526153
H             -4.45950231        5.10412732        0.92129601
H             -1.28876605        2.74071739        3.42896950
