 xtb: 6.6.1 (8d0f1dd)
          04062411163D

 72 74  0     0  0            999 V2000
   -2.6237    2.8430    2.4271 N   0  0  0  0  0  0  0  0  0  0  0  0
   -2.0132    2.2660    1.3830 C   0  0  0  0  0  0  0  0  0  0  0  0
   -2.9814    1.9789    0.2864 C   0  0  0  0  0  0  0  0  0  0  0  0
   -3.4795    0.5396    0.3568 C   0  0  0  0  0  0  0  0  0  0  0  0
   -4.3058    0.0370   -0.6102 C   0  0  0  0  0  0  0  0  0  0  0  0
   -4.7807   -1.2792   -0.5930 C   0  0  0  0  0  0  0  0  0  0  0  0
   -5.5689   -1.8399   -1.5337 O   0  0  0  0  0  0  0  0  0  0  0  0
   -5.9990   -1.0725   -2.6308 C   0  0  0  0  0  0  0  0  0  0  0  0
   -4.4180   -2.1465    0.4962 C   0  0  0  0  0  0  0  0  0  0  0  0
   -4.9438   -3.3902    0.4083 O   0  0  0  0  0  0  0  0  0  0  0  0
   -4.7176   -4.2942    1.4630 C   0  0  0  0  0  0  0  0  0  0  0  0
   -3.6136   -1.6909    1.4865 C   0  0  0  0  0  0  0  0  0  0  0  0
   -3.0873   -0.2944    1.5356 C   0  0  0  0  0  0  0  0  0  0  0  0
   -2.3932    2.2934   -1.1074 C   0  0  0  0  0  0  0  0  0  0  0  0
   -1.4456    1.2167   -1.6613 C   0  0  0  0  0  0  0  0  0  0  0  0
   -0.1610    1.1254   -0.9351 C   0  0  0  0  0  0  0  0  0  0  0  0
    0.4279   -0.0109   -0.5341 N   0  0  0  0  0  0  0  0  0  0  0  0
    1.8181    0.0066   -0.1449 C   0  0  0  0  0  0  0  0  0  0  0  0
    2.7518   -0.3381   -1.3231 C   0  0  0  0  0  0  0  0  0  0  0  0
    4.1862   -0.1439   -0.9218 C   0  0  0  0  0  0  0  0  0  0  0  0
    4.8285    1.0592   -1.1537 C   0  0  0  0  0  0  0  0  0  0  0  0
    6.1458    1.2477   -0.7615 C   0  0  0  0  0  0  0  0  0  0  0  0
    6.8429    0.2354   -0.1214 C   0  0  0  0  0  0  0  0  0  0  0  0
    8.1234    0.3083    0.3020 O   0  0  0  0  0  0  0  0  0  0  0  0
    8.8509    1.4910    0.0684 C   0  0  0  0  0  0  0  0  0  0  0  0
    6.1906   -1.0009    0.1263 C   0  0  0  0  0  0  0  0  0  0  0  0
    6.9433   -1.9332    0.7534 O   0  0  0  0  0  0  0  0  0  0  0  0
    6.3882   -3.2000    1.0091 C   0  0  0  0  0  0  0  0  0  0  0  0
    4.8762   -1.1679   -0.2752 C   0  0  0  0  0  0  0  0  0  0  0  0
   -0.1564   -1.3056   -0.7861 C   0  0  0  0  0  0  0  0  0  0  0  0
   -4.1648    2.9357    0.6774 C   0  0  0  0  0  0  0  0  0  0  0  0
   -4.0372    3.0206    2.2076 C   0  0  0  0  0  0  0  0  0  0  0  0
   -4.0650    4.3370    0.0820 C   0  0  0  0  0  0  0  0  0  0  0  0
   -4.5971    0.6742   -1.4304 H   0  0  0  0  0  0  0  0  0  0  0  0
   -6.5944   -0.2110   -2.3125 H   0  0  0  0  0  0  0  0  0  0  0  0
   -6.6216   -1.7376   -3.2264 H   0  0  0  0  0  0  0  0  0  0  0  0
   -5.1552   -0.7294   -3.2389 H   0  0  0  0  0  0  0  0  0  0  0  0
   -5.1097   -3.9089    2.4095 H   0  0  0  0  0  0  0  0  0  0  0  0
   -5.2543   -5.2010    1.1922 H   0  0  0  0  0  0  0  0  0  0  0  0
   -3.6531   -4.5223    1.5759 H   0  0  0  0  0  0  0  0  0  0  0  0
   -3.3402   -2.3208    2.3169 H   0  0  0  0  0  0  0  0  0  0  0  0
   -1.9893   -0.3180    1.6272 H   0  0  0  0  0  0  0  0  0  0  0  0
   -3.2131    2.4068   -1.8153 H   0  0  0  0  0  0  0  0  0  0  0  0
   -1.8596    3.2422   -1.0575 H   0  0  0  0  0  0  0  0  0  0  0  0
   -1.9580    0.2576   -1.6859 H   0  0  0  0  0  0  0  0  0  0  0  0
   -1.2288    1.5006   -2.7005 H   0  0  0  0  0  0  0  0  0  0  0  0
   -0.9637    2.0540    1.3808 H   0  0  0  0  0  0  0  0  0  0  0  0
    0.3956    2.0342   -0.7735 H   0  0  0  0  0  0  0  0  0  0  0  0
    1.9733   -0.7106    0.6653 H   0  0  0  0  0  0  0  0  0  0  0  0
    2.0732    1.0017    0.2253 H   0  0  0  0  0  0  0  0  0  0  0  0
    2.5084    0.3183   -2.1607 H   0  0  0  0  0  0  0  0  0  0  0  0
    2.5832   -1.3706   -1.6313 H   0  0  0  0  0  0  0  0  0  0  0  0
    4.3098    1.8610   -1.6575 H   0  0  0  0  0  0  0  0  0  0  0  0
    6.6223    2.1924   -0.9663 H   0  0  0  0  0  0  0  0  0  0  0  0
    8.3981    2.3483    0.5766 H   0  0  0  0  0  0  0  0  0  0  0  0
    8.9371    1.7045   -1.0015 H   0  0  0  0  0  0  0  0  0  0  0  0
    9.8418    1.3105    0.4807 H   0  0  0  0  0  0  0  0  0  0  0  0
    7.1764   -3.7717    1.4954 H   0  0  0  0  0  0  0  0  0  0  0  0
    5.5250   -3.1334    1.6797 H   0  0  0  0  0  0  0  0  0  0  0  0
    6.0943   -3.7050    0.0834 H   0  0  0  0  0  0  0  0  0  0  0  0
    4.3738   -2.1068   -0.1018 H   0  0  0  0  0  0  0  0  0  0  0  0
   -0.1067   -1.5710   -1.8459 H   0  0  0  0  0  0  0  0  0  0  0  0
   -1.2001   -1.3240   -0.4734 H   0  0  0  0  0  0  0  0  0  0  0  0
    0.3870   -2.0559   -0.2158 H   0  0  0  0  0  0  0  0  0  0  0  0
   -5.1177    2.4912    0.3895 H   0  0  0  0  0  0  0  0  0  0  0  0
   -4.3721    3.9819    2.6005 H   0  0  0  0  0  0  0  0  0  0  0  0
   -3.4386    0.1808    2.4639 H   0  0  0  0  0  0  0  0  0  0  0  0
   -4.6102    2.2278    2.7043 H   0  0  0  0  0  0  0  0  0  0  0  0
   -3.1243    4.8085    0.3560 H   0  0  0  0  0  0  0  0  0  0  0  0
   -4.1486    4.3230   -0.9999 H   0  0  0  0  0  0  0  0  0  0  0  0
   -4.8787    4.9476    0.4666 H   0  0  0  0  0  0  0  0  0  0  0  0
   -2.1759    3.0618    3.3005 H   0  0  0  0  0  0  0  0  0  0  0  0
  1  2  4  0  0  0  0
  2  3  1  0  0  0  0
  3  4  1  0  0  0  0
  4  5  2  0  0  0  0
  5  6  4  0  0  0  0
  6  7  1  0  0  0  0
  7  8  1  0  0  0  0
  6  9  1  0  0  0  0
  9 10  1  0  0  0  0
 10 11  1  0  0  0  0
  9 12  2  0  0  0  0
  4 13  1  0  0  0  0
 12 13  1  0  0  0  0
  3 14  1  0  0  0  0
 14 15  1  0  0  0  0
 15 16  1  0  0  0  0
 16 17  4  0  0  0  0
 17 18  1  0  0  0  0
 18 19  1  0  0  0  0
 19 20  1  0  0  0  0
 20 21  4  0  0  0  0
 21 22  4  0  0  0  0
 22 23  4  0  0  0  0
 23 24  1  0  0  0  0
 24 25  1  0  0  0  0
 23 26  4  0  0  0  0
 26 27  1  0  0  0  0
 27 28  1  0  0  0  0
 20 29  4  0  0  0  0
 26 29  4  0  0  0  0
 17 30  1  0  0  0  0
  3 31  1  0  0  0  0
  1 32  1  0  0  0  0
 31 32  1  0  0  0  0
 31 33  1  0  0  0  0
  5 34  1  0  0  0  0
  8 35  1  0  0  0  0
  8 36  1  0  0  0  0
  8 37  1  0  0  0  0
 11 38  1  0  0  0  0
 11 39  1  0  0  0  0
 11 40  1  0  0  0  0
 12 41  1  0  0  0  0
 13 42  1  0  0  0  0
 14 43  1  0  0  0  0
 14 44  1  0  0  0  0
 15 45  1  0  0  0  0
 15 46  1  0  0  0  0
  2 47  1  0  0  0  0
 16 48  1  0  0  0  0
 18 49  1  0  0  0  0
 18 50  1  0  0  0  0
 19 51  1  0  0  0  0
 19 52  1  0  0  0  0
 21 53  1  0  0  0  0
 22 54  1  0  0  0  0
 25 55  1  0  0  0  0
 25 56  1  0  0  0  0
 25 57  1  0  0  0  0
 28 58  1  0  0  0  0
 28 59  1  0  0  0  0
 28 60  1  0  0  0  0
 29 61  1  0  0  0  0
 30 62  1  0  0  0  0
 30 63  1  0  0  0  0
 30 64  1  0  0  0  0
 31 65  1  0  0  0  0
 32 66  1  0  0  0  0
 13 67  1  0  0  0  0
 32 68  1  0  0  0  0
 33 69  1  0  0  0  0
 33 70  1  0  0  0  0
 33 71  1  0  0  0  0
  1 72  1  0  0  0  0
M  CHG  1   1   1
M  END
