 xtb: 6.6.1 (8d0f1dd)
          06052419583D

 25 26  0     0  0            999 V2000
    3.2883    0.9278   -0.0438 C   0  0  0  0  0  0  0  0  0  0  0  0
    2.3787   -0.0449    0.0048 N   0  0  0  0  0  0  0  0  0  0  0  0
    2.5872   -1.3742    0.1322 C   0  0  0  0  0  0  0  0  0  0  0  0
    1.3873   -2.0426    0.1365 N   0  0  0  0  0  0  0  0  0  0  0  0
    0.3968   -1.1446    0.0129 C   0  0  0  0  0  0  0  0  0  0  0  0
    0.9902    0.1294   -0.0498 C   0  0  0  0  0  0  0  0  0  0  0  0
    0.1916    1.2658   -0.0185 C   0  0  0  0  0  0  0  0  0  0  0  0
    0.6357    2.5114    0.0789 O   0  0  0  0  0  0  0  0  0  0  0  0
   -1.1556    1.0644   -0.0525 N   0  0  0  0  0  0  0  0  0  0  0  0
   -2.0693    2.1979   -0.0593 C   0  0  0  0  0  0  0  0  0  0  0  0
   -1.7805   -0.1903   -0.0810 C   0  0  0  0  0  0  0  0  0  0  0  0
   -2.9721   -0.2884   -0.1366 O   0  0  0  0  0  0  0  0  0  0  0  0
   -0.9465   -1.3124   -0.0204 N   0  0  0  0  0  0  0  0  0  0  0  0
   -1.5441   -2.6335   -0.0098 C   0  0  0  0  0  0  0  0  0  0  0  0
    4.3130    0.6861    0.1271 H   0  0  0  0  0  0  0  0  0  0  0  0
    3.0544    1.8854   -0.4595 H   0  0  0  0  0  0  0  0  0  0  0  0
    1.5961    2.5242    0.2481 H   0  0  0  0  0  0  0  0  0  0  0  0
    3.5430   -1.8423    0.2152 H   0  0  0  0  0  0  0  0  0  0  0  0
   -1.4972    3.1196   -0.0671 H   0  0  0  0  0  0  0  0  0  0  0  0
   -2.7066    2.1406   -0.9413 H   0  0  0  0  0  0  0  0  0  0  0  0
   -2.7071    2.1575    0.8235 H   0  0  0  0  0  0  0  0  0  0  0  0
   -1.3075   -3.1518    0.9200 H   0  0  0  0  0  0  0  0  0  0  0  0
   -1.1915   -3.2149   -0.8621 H   0  0  0  0  0  0  0  0  0  0  0  0
   -2.6232   -2.5087   -0.0833 H   0  0  0  0  0  0  0  0  0  0  0  0
    1.2992   -3.0432    0.2173 H   0  0  0  0  0  0  0  0  0  0  0  0
  1  2  4  0  0  0  0
  2  3  4  0  0  0  0
  3  4  1  0  0  0  0
  4  5  4  0  0  0  0
  2  6  1  0  0  0  0
  5  6  4  0  0  0  0
  6  7  4  0  0  0  0
  7  8  1  0  0  0  0
  7  9  4  0  0  0  0
  9 10  1  0  0  0  0
  9 11  1  0  0  0  0
 11 12  2  0  0  0  0
  5 13  1  0  0  0  0
 11 13  1  0  0  0  0
 13 14  1  0  0  0  0
  1 15  1  0  0  0  0
  1 16  1  0  0  0  0
  8 17  1  0  0  0  0
  3 18  1  0  0  0  0
 10 19  1  0  0  0  0
 10 20  1  0  0  0  0
 10 21  1  0  0  0  0
 14 22  1  0  0  0  0
 14 23  1  0  0  0  0
 14 24  1  0  0  0  0
  4 25  1  0  0  0  0
M  CHG  1   1   1
M  END
