 xtb: 6.6.1 (8d0f1dd)
          06052419583D

 25 26  0     0  0            999 V2000
    3.2796    1.1483   -0.0216 C   0  0  0  0  0  0  0  0  0  0  0  0
    2.4115    0.1529    0.0028 N   0  0  0  0  0  0  0  0  0  0  0  0
    2.5684   -1.0820    0.5306 C   0  0  0  0  0  0  0  0  0  0  0  0
    1.4189   -1.8050    0.4028 N   0  0  0  0  0  0  0  0  0  0  0  0
    0.4804   -1.0755   -0.2435 C   0  0  0  0  0  0  0  0  0  0  0  0
    1.0710    0.2475   -0.5560 C   0  0  0  0  0  0  0  0  0  0  0  0
    0.1766    1.3431    0.1009 C   0  0  0  0  0  0  0  0  0  0  0  0
    0.6362    2.3280    0.6161 O   0  0  0  0  0  0  0  0  0  0  0  0
   -1.1573    1.0567   -0.0180 N   0  0  0  0  0  0  0  0  0  0  0  0
   -2.1146    2.1234    0.2540 C   0  0  0  0  0  0  0  0  0  0  0  0
   -1.7241   -0.1790   -0.3340 C   0  0  0  0  0  0  0  0  0  0  0  0
   -2.9003   -0.3155   -0.5479 O   0  0  0  0  0  0  0  0  0  0  0  0
   -0.8523   -1.2789   -0.2963 N   0  0  0  0  0  0  0  0  0  0  0  0
   -1.4253   -2.6108   -0.2356 C   0  0  0  0  0  0  0  0  0  0  0  0
    4.2392    1.0179    0.4418 H   0  0  0  0  0  0  0  0  0  0  0  0
    1.0938    0.5131   -1.6236 H   0  0  0  0  0  0  0  0  0  0  0  0
    2.9995    2.0879   -0.4526 H   0  0  0  0  0  0  0  0  0  0  0  0
    3.4672   -1.4433    0.9824 H   0  0  0  0  0  0  0  0  0  0  0  0
   -1.5759    3.0655    0.3158 H   0  0  0  0  0  0  0  0  0  0  0  0
   -2.8496    2.1519   -0.5501 H   0  0  0  0  0  0  0  0  0  0  0  0
   -2.6349    1.9354    1.1935 H   0  0  0  0  0  0  0  0  0  0  0  0
   -1.3905   -3.0034    0.7825 H   0  0  0  0  0  0  0  0  0  0  0  0
   -0.8941   -3.2785   -0.9120 H   0  0  0  0  0  0  0  0  0  0  0  0
   -2.4676   -2.5338   -0.5443 H   0  0  0  0  0  0  0  0  0  0  0  0
    1.3049   -2.7478    0.7434 H   0  0  0  0  0  0  0  0  0  0  0  0
  1  2  4  0  0  0  0
  2  3  4  0  0  0  0
  3  4  1  0  0  0  0
  4  5  4  0  0  0  0
  2  6  1  0  0  0  0
  5  6  1  0  0  0  0
  6  7  1  0  0  0  0
  7  8  2  0  0  0  0
  7  9  1  0  0  0  0
  9 10  1  0  0  0  0
  9 11  1  0  0  0  0
 11 12  2  0  0  0  0
  5 13  4  0  0  0  0
 11 13  1  0  0  0  0
 13 14  1  0  0  0  0
  1 15  1  0  0  0  0
  6 16  1  0  0  0  0
  1 17  1  0  0  0  0
  3 18  1  0  0  0  0
 10 19  1  0  0  0  0
 10 20  1  0  0  0  0
 10 21  1  0  0  0  0
 14 22  1  0  0  0  0
 14 23  1  0  0  0  0
 14 24  1  0  0  0  0
  4 25  1  0  0  0  0
M  CHG  1   1   1
M  END
