          37
 
N             -2.17287430        3.40204038        2.13371442
C             -2.36737774        2.79102661        1.06248966
C             -3.73924327        2.53603300        0.48635912
C             -3.92446327        1.01909878        0.33950603
C             -4.88760903        0.51805614       -0.53248519
C             -5.11406907       -0.84502148       -0.64499371
O             -6.02465552       -1.42032217       -1.45170987
C             -6.87514382       -0.60740280       -2.22739026
C             -4.34984205       -1.74770225        0.14555437
O             -4.64011754       -3.05173265       -0.02379204
C             -4.00356480       -4.01109732        0.78691400
C             -3.39460020       -1.23466541        1.01027035
C             -3.18206299        0.13349010        1.10515287
C             -3.75932557        3.17275805       -0.84600858
C             -4.92357636        3.07811632        1.34943035
C             -4.98374162        2.43506761        2.72883515
C             -4.85395299        4.59646110        1.47368282
H             -5.47264396        1.20273632       -1.12236259
H             -7.48339706        0.04979318       -1.59845501
H             -7.52545608       -1.29569394       -2.76372292
H             -6.31019952       -0.00736377       -2.94754658
H             -4.19201636       -3.82716494        1.84856621
H             -4.43931277       -4.96727776        0.50344709
H             -2.92358403       -4.03827506        0.60682117
H             -2.81835504       -1.89642889        1.63725411
H             -2.44674426        0.49951753        1.80399619
H             -4.68876958        3.40795854       -1.32522770
H             -2.85137450        3.46623828       -1.33662087
H             -1.56590585        2.40332861        0.41627412
H             -5.83697707        2.81242085        0.80543646
H             -4.09630546        2.69258192        3.30012137
H             -5.06091746        1.35168036        2.65911613
H             -5.85692137        2.80617414        3.26016497
H             -3.97755833        4.88316540        2.04697895
H             -4.79731300        5.06546912        0.49325036
H             -5.73888356        4.96519526        1.98564354
H             -1.21427696        3.55662096        2.42955104
