          24
 
C              3.22854959        1.14535419        0.00634097
N              2.28634239        0.05787120       -0.01065760
C              2.56978524       -1.23992531       -0.02169580
N              1.43002769       -1.96242053       -0.01646132
C              0.37438113       -1.08401696       -0.00446560
C              0.91911334        0.19512673       -0.00082250
C              0.09855297        1.38459182        0.00885642
O              0.49921096        2.52645885        0.02232223
N             -1.26352241        1.05792072       -0.00144203
C             -2.21225042        2.16750759       -0.00463283
C             -1.84443588       -0.17947627       -0.01352372
O             -3.02723257       -0.36302548       -0.03943516
N             -0.95567114       -1.33599130        0.01248730
C             -1.51892788       -2.55448580        0.04957935
H              3.82636328        1.11272394        0.91755447
H              3.89569959        1.08324286       -0.85302227
H              2.67752998        2.08481599       -0.02738142
H              3.55760933       -1.65722917       -0.03233606
H             -1.64473503        3.09425363        0.02010099
H             -2.82753476        2.12477204       -0.90229495
H             -2.86242024        2.09819035        0.86617859
H             -0.91289725       -3.43599345        0.09466360
H             -2.60250192       -2.61506083        0.07556176
H              1.38286041       -2.97074047       -0.03263597
