 xtb: 6.6.1 (8d0f1dd)
          06052420003D

 25 25  0     0  0            999 V2000
    4.2396    0.4885   -0.0240 C   0  0  0  0  0  0  0  0  0  0  0  0
    3.4185   -0.4294    0.2379 N   0  0  0  0  0  0  0  0  0  0  0  0
    2.7295   -1.4797    0.0095 C   0  0  0  0  0  0  0  0  0  0  0  0
    1.3958   -1.6065    0.0395 N   0  0  0  0  0  0  0  0  0  0  0  0
    0.4215   -0.6031    0.0536 C   0  0  0  0  0  0  0  0  0  0  0  0
    0.7176    0.7214    0.0963 C   0  0  0  0  0  0  0  0  0  0  0  0
   -0.3185    1.7309    0.0711 C   0  0  0  0  0  0  0  0  0  0  0  0
   -0.1046    2.9213    0.0917 O   0  0  0  0  0  0  0  0  0  0  0  0
   -1.6131    1.2211    0.0103 N   0  0  0  0  0  0  0  0  0  0  0  0
   -2.7211    2.1593   -0.0279 C   0  0  0  0  0  0  0  0  0  0  0  0
   -1.9438   -0.1080   -0.0179 C   0  0  0  0  0  0  0  0  0  0  0  0
   -3.0830   -0.4913   -0.0644 O   0  0  0  0  0  0  0  0  0  0  0  0
   -0.8752   -1.0270    0.0044 N   0  0  0  0  0  0  0  0  0  0  0  0
   -1.2413   -2.4314   -0.0331 C   0  0  0  0  0  0  0  0  0  0  0  0
    4.6958    1.0403    0.7943 H   0  0  0  0  0  0  0  0  0  0  0  0
    4.4952    0.7600   -1.0475 H   0  0  0  0  0  0  0  0  0  0  0  0
    1.7223    1.0909    0.1497 H   0  0  0  0  0  0  0  0  0  0  0  0
    3.2810   -2.4166   -0.0730 H   0  0  0  0  0  0  0  0  0  0  0  0
   -2.3065    3.1656   -0.0266 H   0  0  0  0  0  0  0  0  0  0  0  0
   -3.3161    1.9929   -0.9260 H   0  0  0  0  0  0  0  0  0  0  0  0
   -3.3630    2.0123    0.8410 H   0  0  0  0  0  0  0  0  0  0  0  0
   -0.9030   -2.9542    0.8631 H   0  0  0  0  0  0  0  0  0  0  0  0
   -0.8681   -2.9165   -0.9370 H   0  0  0  0  0  0  0  0  0  0  0  0
   -2.3321   -2.4697   -0.0561 H   0  0  0  0  0  0  0  0  0  0  0  0
    1.0330   -2.5528    0.0021 H   0  0  0  0  0  0  0  0  0  0  0  0
  1  2  2  0  0  0  0
  2  3  2  0  0  0  0
  3  4  4  0  0  0  0
  4  5  1  0  0  0  0
  5  6  2  0  0  0  0
  6  7  1  0  0  0  0
  7  8  2  0  0  0  0
  7  9  1  0  0  0  0
  9 10  1  0  0  0  0
  9 11  1  0  0  0  0
 11 12  2  0  0  0  0
  5 13  1  0  0  0  0
 11 13  1  0  0  0  0
 13 14  1  0  0  0  0
  1 15  1  0  0  0  0
  1 16  1  0  0  0  0
  6 17  1  0  0  0  0
  3 18  1  0  0  0  0
 10 19  1  0  0  0  0
 10 20  1  0  0  0  0
 10 21  1  0  0  0  0
 14 22  1  0  0  0  0
 14 23  1  0  0  0  0
 14 24  1  0  0  0  0
  4 25  1  0  0  0  0
M  CHG  1   1   1
M  END
