          62
 
N             -1.17533276        1.52419030        2.26539889
C             -1.32818549        2.00434706        1.08168055
C             -2.25310259        1.56338703        0.10989238
C             -3.14945194        0.46700534        0.28881460
C             -4.04064995        0.05525507       -0.73078942
C             -4.86796886       -1.03618885       -0.57758926
O             -5.74283248       -1.48960818       -1.50671056
C             -5.88587067       -0.78758900       -2.71712655
C             -4.83678259       -1.79151620        0.62859798
O             -5.65424819       -2.86076147        0.66802876
C             -5.66934276       -3.67019991        1.82058621
C             -3.98426190       -1.37550582        1.64635632
C             -3.16752892       -0.27627923        1.48574502
C             -2.15958029        2.25065783       -1.22118055
C             -1.28284075        1.42809802       -2.21414274
C              0.10374744        1.34410110       -1.72072186
N              0.62556481        0.31424950       -1.07551605
C              1.99596300        0.36056670       -0.62592680
C              2.95991847       -0.24192853       -1.66679895
C              4.37110053       -0.17378037       -1.15535890
C              5.11745664        0.98467370       -1.29540142
C              6.40566286        1.06441024       -0.78931152
C              6.97332589       -0.01567600       -0.12929417
O              8.21032396       -0.04936509        0.40335015
C              9.03415290        1.08836922        0.29673932
C              6.21661312       -1.21021281        0.01591644
O              6.84515937       -2.21409930        0.66164735
C              6.18573398       -3.44709634        0.82115282
C              4.92935810       -1.26478921       -0.49405676
C             -0.07624697       -0.93938615       -0.93139710
H             -4.08794107        0.60520567       -1.65464108
H             -6.21170238        0.24439084       -2.54800825
H             -6.65471161       -1.31925584       -3.27446892
H             -4.95658088       -0.78755708       -3.29714542
H             -6.01144200       -3.11264639        2.69805527
H             -6.37318130       -4.47291301        1.60723905
H             -4.68238464       -4.09842072        2.02213890
H             -3.95214070       -1.91557624        2.57925582
H             -2.50600794        0.03001986        2.28021429
H             -3.14179547        2.39297007       -1.67005545
H             -1.70732833        3.23682773       -1.10314507
H             -1.72656195        0.44272500       -2.34353680
H             -1.28678687        1.95021699       -3.17359395
H             -0.70352576        2.84481632        0.74338343
H              0.71755820        2.22871721       -1.79352600
H              2.07964239       -0.19109421        0.31294295
H              2.28136166        1.39717717       -0.43703993
H              2.86941427        0.32450178       -2.59535847
H              2.68117477       -1.27737344       -1.86544149
H              4.70217356        1.83625815       -1.81269715
H              6.96372257        1.97715741       -0.91861378
H              8.59288609        1.95149737        0.80481852
H              9.23428165        1.34220987       -0.74862981
H              9.96764295        0.81973023        0.78759875
H              6.88993026       -4.08923690        1.34635791
H              5.27628712       -3.34201410        1.42147438
H              5.93708137       -3.89716970       -0.14508384
H              4.34779580       -2.16765799       -0.39266773
H             -0.27528787       -1.39199267       -1.90554011
H             -1.02309082       -0.78993413       -0.41034778
H              0.53134598       -1.62647827       -0.34890802
H             -0.46726090        1.97114974        2.83539706
