 xtb: 6.6.1 (8d0f1dd)
          04062411153D

 72 73  0     0  0            999 V2000
   -2.2150    3.2587    2.1876 N   0  0  0  0  0  0  0  0  0  0  0  0
   -2.4016    2.0626    1.7729 C   0  0  0  0  0  0  0  0  0  0  0  0
   -3.5666    1.6571    1.0645 C   0  0  0  0  0  0  0  0  0  0  0  0
   -3.7989    0.2795    0.7703 C   0  0  0  0  0  0  0  0  0  0  0  0
   -4.8187   -0.1343   -0.1232 C   0  0  0  0  0  0  0  0  0  0  0  0
   -5.1348   -1.4602   -0.3283 C   0  0  0  0  0  0  0  0  0  0  0  0
   -6.1142   -1.9135   -1.1353 O   0  0  0  0  0  0  0  0  0  0  0  0
   -6.9845   -0.9931   -1.7527 C   0  0  0  0  0  0  0  0  0  0  0  0
   -4.4041   -2.4785    0.3538 C   0  0  0  0  0  0  0  0  0  0  0  0
   -4.8078   -3.7353    0.1281 O   0  0  0  0  0  0  0  0  0  0  0  0
   -4.1960   -4.7993    0.8223 C   0  0  0  0  0  0  0  0  0  0  0  0
   -3.3594   -2.0881    1.1886 C   0  0  0  0  0  0  0  0  0  0  0  0
   -3.0655   -0.7572    1.3921 C   0  0  0  0  0  0  0  0  0  0  0  0
   -0.7271    2.4437   -1.2992 C   0  0  0  0  0  0  0  0  0  0  0  0
   -1.2496    1.3942   -2.2344 C   0  0  0  0  0  0  0  0  0  0  0  0
    0.1465    1.2823   -1.7106 C   0  0  0  0  0  0  0  0  0  0  0  0
    0.5031    0.3178   -0.7211 N   0  0  0  0  0  0  0  0  0  0  0  0
    1.8709    0.3776   -0.2803 C   0  0  0  0  0  0  0  0  0  0  0  0
    2.8847   -0.2230   -1.2864 C   0  0  0  0  0  0  0  0  0  0  0  0
    4.2932   -0.0665   -0.8039 C   0  0  0  0  0  0  0  0  0  0  0  0
    4.9840    1.1228   -1.0055 C   0  0  0  0  0  0  0  0  0  0  0  0
    6.2973    1.2625   -0.5906 C   0  0  0  0  0  0  0  0  0  0  0  0
    6.9555    0.2143    0.0420 C   0  0  0  0  0  0  0  0  0  0  0  0
    8.2326    0.2269    0.4575 O   0  0  0  0  0  0  0  0  0  0  0  0
    9.0288    1.3647    0.2157 C   0  0  0  0  0  0  0  0  0  0  0  0
    6.2483   -0.9999    0.2792 C   0  0  0  0  0  0  0  0  0  0  0  0
    6.9519   -1.9617    0.9029 O   0  0  0  0  0  0  0  0  0  0  0  0
    6.3464   -3.2087    1.1508 C   0  0  0  0  0  0  0  0  0  0  0  0
    4.9322   -1.1131   -0.1451 C   0  0  0  0  0  0  0  0  0  0  0  0
   -0.0952   -0.9915   -0.8098 C   0  0  0  0  0  0  0  0  0  0  0  0
   -4.5611    2.7276    0.7000 C   0  0  0  0  0  0  0  0  0  0  0  0
   -5.1799    3.3217    1.9705 C   0  0  0  0  0  0  0  0  0  0  0  0
   -3.9263    3.8320   -0.1494 C   0  0  0  0  0  0  0  0  0  0  0  0
   -5.3657    0.6084   -0.6770 H   0  0  0  0  0  0  0  0  0  0  0  0
   -7.4638   -0.3410   -1.0164 H   0  0  0  0  0  0  0  0  0  0  0  0
   -7.7431   -1.5963   -2.2482 H   0  0  0  0  0  0  0  0  0  0  0  0
   -6.4629   -0.3852   -2.4990 H   0  0  0  0  0  0  0  0  0  0  0  0
   -4.2733   -4.6667    1.9055 H   0  0  0  0  0  0  0  0  0  0  0  0
   -4.7433   -5.6929    0.5281 H   0  0  0  0  0  0  0  0  0  0  0  0
   -3.1445   -4.9088    0.5401 H   0  0  0  0  0  0  0  0  0  0  0  0
   -2.7788   -2.8346    1.7068 H   0  0  0  0  0  0  0  0  0  0  0  0
   -2.2763   -0.5257    2.0882 H   0  0  0  0  0  0  0  0  0  0  0  0
   -1.1077    2.4190   -0.2945 H   0  0  0  0  0  0  0  0  0  0  0  0
   -0.4970    3.4281   -1.6798 H   0  0  0  0  0  0  0  0  0  0  0  0
   -2.0095    0.7215   -1.8672 H   0  0  0  0  0  0  0  0  0  0  0  0
   -1.3613    1.6507   -3.2766 H   0  0  0  0  0  0  0  0  0  0  0  0
   -1.6445    1.2881    1.9528 H   0  0  0  0  0  0  0  0  0  0  0  0
    0.9433    1.5174   -2.4106 H   0  0  0  0  0  0  0  0  0  0  0  0
    1.9515   -0.1647    0.6664 H   0  0  0  0  0  0  0  0  0  0  0  0
    2.1233    1.4249   -0.0975 H   0  0  0  0  0  0  0  0  0  0  0  0
    2.7710    0.2901   -2.2432 H   0  0  0  0  0  0  0  0  0  0  0  0
    2.6539   -1.2791   -1.4316 H   0  0  0  0  0  0  0  0  0  0  0  0
    4.4999    1.9471   -1.5065 H   0  0  0  0  0  0  0  0  0  0  0  0
    6.8100    2.1928   -0.7731 H   0  0  0  0  0  0  0  0  0  0  0  0
    8.6404    2.2438    0.7383 H   0  0  0  0  0  0  0  0  0  0  0  0
    9.1042    1.5788   -0.8546 H   0  0  0  0  0  0  0  0  0  0  0  0
   10.0150    1.1195    0.6054 H   0  0  0  0  0  0  0  0  0  0  0  0
    7.1096   -3.8141    1.6357 H   0  0  0  0  0  0  0  0  0  0  0  0
    5.4848   -3.1091    1.8183 H   0  0  0  0  0  0  0  0  0  0  0  0
    6.0357   -3.6945    0.2207 H   0  0  0  0  0  0  0  0  0  0  0  0
    4.3919   -2.0325    0.0168 H   0  0  0  0  0  0  0  0  0  0  0  0
    0.0533   -1.4552   -1.7924 H   0  0  0  0  0  0  0  0  0  0  0  0
   -1.1679   -0.9195   -0.6246 H   0  0  0  0  0  0  0  0  0  0  0  0
    0.3383   -1.6347   -0.0465 H   0  0  0  0  0  0  0  0  0  0  0  0
   -5.3796    2.2919    0.1241 H   0  0  0  0  0  0  0  0  0  0  0  0
   -4.4153    3.8242    2.5543 H   0  0  0  0  0  0  0  0  0  0  0  0
   -5.6354    2.5405    2.5756 H   0  0  0  0  0  0  0  0  0  0  0  0
   -5.9465    4.0409    1.6973 H   0  0  0  0  0  0  0  0  0  0  0  0
   -3.1322    4.3169    0.4113 H   0  0  0  0  0  0  0  0  0  0  0  0
   -3.5151    3.4216   -1.0694 H   0  0  0  0  0  0  0  0  0  0  0  0
   -4.6764    4.5760   -0.4030 H   0  0  0  0  0  0  0  0  0  0  0  0
   -1.3489    3.4544    2.6739 H   0  0  0  0  0  0  0  0  0  0  0  0
  1  2  2  0  0  0  0
  2  3  4  0  0  0  0
  3  4  4  0  0  0  0
  4  5  4  0  0  0  0
  5  6  4  0  0  0  0
  6  7  1  0  0  0  0
  7  8  1  0  0  0  0
  6  9  1  0  0  0  0
  9 10  1  0  0  0  0
 10 11  1  0  0  0  0
  9 12  4  0  0  0  0
  4 13  4  0  0  0  0
 12 13  4  0  0  0  0
 14 15  1  0  0  0  0
 14 16  1  0  0  0  0
 15 16  1  0  0  0  0
 16 17  1  0  0  0  0
 17 18  1  0  0  0  0
 18 19  1  0  0  0  0
 19 20  1  0  0  0  0
 20 21  4  0  0  0  0
 21 22  4  0  0  0  0
 22 23  4  0  0  0  0
 23 24  1  0  0  0  0
 24 25  1  0  0  0  0
 23 26  4  0  0  0  0
 26 27  1  0  0  0  0
 27 28  1  0  0  0  0
 20 29  4  0  0  0  0
 26 29  4  0  0  0  0
 17 30  1  0  0  0  0
  3 31  1  0  0  0  0
 31 32  1  0  0  0  0
 31 33  1  0  0  0  0
  5 34  1  0  0  0  0
  8 35  1  0  0  0  0
  8 36  1  0  0  0  0
  8 37  1  0  0  0  0
 11 38  1  0  0  0  0
 11 39  1  0  0  0  0
 11 40  1  0  0  0  0
 12 41  1  0  0  0  0
 13 42  1  0  0  0  0
 14 43  1  0  0  0  0
 14 44  1  0  0  0  0
 15 45  1  0  0  0  0
 15 46  1  0  0  0  0
  2 47  1  0  0  0  0
 16 48  1  0  0  0  0
 18 49  1  0  0  0  0
 18 50  1  0  0  0  0
 19 51  1  0  0  0  0
 19 52  1  0  0  0  0
 21 53  1  0  0  0  0
 22 54  1  0  0  0  0
 25 55  1  0  0  0  0
 25 56  1  0  0  0  0
 25 57  1  0  0  0  0
 28 58  1  0  0  0  0
 28 59  1  0  0  0  0
 28 60  1  0  0  0  0
 29 61  1  0  0  0  0
 30 62  1  0  0  0  0
 30 63  1  0  0  0  0
 30 64  1  0  0  0  0
 31 65  1  0  0  0  0
 32 66  1  0  0  0  0
 32 67  1  0  0  0  0
 32 68  1  0  0  0  0
 33 69  1  0  0  0  0
 33 70  1  0  0  0  0
 33 71  1  0  0  0  0
  1 72  1  0  0  0  0
M  CHG  1   1   1
M  END
