 xtb: 6.6.1 (8d0f1dd)
          06052419573D

 25 25  0     0  0            999 V2000
    3.1575    1.0973    0.0172 C   0  0  0  0  0  0  0  0  0  0  0  0
    2.1938    0.0322   -0.0005 N   0  0  0  0  0  0  0  0  0  0  0  0
    2.4757   -1.2741   -0.0086 C   0  0  0  0  0  0  0  0  0  0  0  0
    1.2996   -1.9474   -0.0076 N   0  0  0  0  0  0  0  0  0  0  0  0
    0.2602   -1.0618    0.0006 C   0  0  0  0  0  0  0  0  0  0  0  0
    0.8302    0.2051    0.0063 C   0  0  0  0  0  0  0  0  0  0  0  0
    0.0148    1.3994   -0.0017 C   0  0  0  0  0  0  0  0  0  0  0  0
    0.4214    2.5380   -0.0140 O   0  0  0  0  0  0  0  0  0  0  0  0
   -1.3463    1.0883    0.0017 N   0  0  0  0  0  0  0  0  0  0  0  0
   -2.2857    2.1984   -0.0015 C   0  0  0  0  0  0  0  0  0  0  0  0
   -1.9309   -0.1686    0.0042 C   0  0  0  0  0  0  0  0  0  0  0  0
   -3.1223   -0.3181    0.0072 O   0  0  0  0  0  0  0  0  0  0  0  0
   -1.0660   -1.2772    0.0014 N   0  0  0  0  0  0  0  0  0  0  0  0
   -1.6292   -2.6105   -0.0022 C   0  0  0  0  0  0  0  0  0  0  0  0
    3.6598    1.1329    0.9856 H   0  0  0  0  0  0  0  0  0  0  0  0
    3.9071    0.9312   -0.7559 H   0  0  0  0  0  0  0  0  0  0  0  0
    2.6482    2.0449   -0.1538 H   0  0  0  0  0  0  0  0  0  0  0  0
    5.3406   -1.8293   -0.0171 H   0  0  0  0  0  0  0  0  0  0  0  0
   -1.7168    3.1260    0.0060 H   0  0  0  0  0  0  0  0  0  0  0  0
   -2.9174    2.1488   -0.8894 H   0  0  0  0  0  0  0  0  0  0  0  0
   -2.9310    2.1413    0.8761 H   0  0  0  0  0  0  0  0  0  0  0  0
   -1.3107   -3.1603    0.8847 H   0  0  0  0  0  0  0  0  0  0  0  0
   -1.3242   -3.1501   -0.9001 H   0  0  0  0  0  0  0  0  0  0  0  0
   -2.7146   -2.5123    0.0063 H   0  0  0  0  0  0  0  0  0  0  0  0
    1.2464   -2.9563   -0.0140 H   0  0  0  0  0  0  0  0  0  0  0  0
  1  2  1  0  0  0  0
  2  3  4  0  0  0  0
  3  4  4  0  0  0  0
  4  5  1  0  0  0  0
  2  6  1  0  0  0  0
  5  6  4  0  0  0  0
  6  7  1  0  0  0  0
  7  8  2  0  0  0  0
  7  9  1  0  0  0  0
  9 10  1  0  0  0  0
  9 11  1  0  0  0  0
 11 12  2  0  0  0  0
  5 13  4  0  0  0  0
 11 13  1  0  0  0  0
 13 14  1  0  0  0  0
  1 15  1  0  0  0  0
  1 16  1  0  0  0  0
  1 17  1  0  0  0  0
 10 19  1  0  0  0  0
 10 20  1  0  0  0  0
 10 21  1  0  0  0  0
 14 22  1  0  0  0  0
 14 23  1  0  0  0  0
 14 24  1  0  0  0  0
  4 25  1  0  0  0  0
M  CHG  1   1   1
M  END
