 xtb: 6.6.1 (8d0f1dd)
          06052419593D

 25 25  0     0  0            999 V2000
    3.0619    1.1432   -0.2679 C   0  0  0  0  0  0  0  0  0  0  0  0
    2.1346    0.0578   -0.1157 N   0  0  0  0  0  0  0  0  0  0  0  0
    2.4451   -1.2083    0.0596 C   0  0  0  0  0  0  0  0  0  0  0  0
    1.3394   -1.9535    0.1749 N   0  0  0  0  0  0  0  0  0  0  0  0
    0.1959   -1.1332    0.0720 C   0  0  0  0  0  0  0  0  0  0  0  0
    0.7422    0.1855   -0.1390 C   0  0  0  0  0  0  0  0  0  0  0  0
    0.1302    1.4261   -0.2848 C   0  0  0  0  0  0  0  0  0  0  0  0
    0.5512    2.5470   -0.3412 O   0  0  0  0  0  0  0  0  0  0  0  0
   -1.4361    1.3010   -0.4011 N   0  0  0  0  0  0  0  0  0  0  0  0
   -2.1761    1.8680    0.7191 C   0  0  0  0  0  0  0  0  0  0  0  0
   -1.8836    0.9343   -1.4971 C   0  0  0  0  0  0  0  0  0  0  0  0
   -2.1551    0.5472   -2.5410 O   0  0  0  0  0  0  0  0  0  0  0  0
   -1.0266   -1.4597    0.1749 N   0  0  0  0  0  0  0  0  0  0  0  0
   -1.4829   -2.7892    0.4379 C   0  0  0  0  0  0  0  0  0  0  0  0
    2.9520    1.8493    0.5563 H   0  0  0  0  0  0  0  0  0  0  0  0
    4.0781    0.7561   -0.2819 H   0  0  0  0  0  0  0  0  0  0  0  0
    2.8626    1.6823   -1.1938 H   0  0  0  0  0  0  0  0  0  0  0  0
    3.4476   -1.5917    0.1023 H   0  0  0  0  0  0  0  0  0  0  0  0
   -1.7405    2.8382    0.9611 H   0  0  0  0  0  0  0  0  0  0  0  0
   -3.2264    1.9901    0.4593 H   0  0  0  0  0  0  0  0  0  0  0  0
   -2.0832    1.1934    1.5723 H   0  0  0  0  0  0  0  0  0  0  0  0
   -0.8500   -3.3585    1.1325 H   0  0  0  0  0  0  0  0  0  0  0  0
   -1.5625   -3.3478   -0.4992 H   0  0  0  0  0  0  0  0  0  0  0  0
   -2.4832   -2.7071    0.8616 H   0  0  0  0  0  0  0  0  0  0  0  0
    1.3258   -2.9524    0.3101 H   0  0  0  0  0  0  0  0  0  0  0  0
  1  2  1  0  0  0  0
  2  3  4  0  0  0  0
  3  4  4  0  0  0  0
  4  5  1  0  0  0  0
  2  6  1  0  0  0  0
  5  6  1  0  0  0  0
  6  7  4  0  0  0  0
  7  8  2  0  0  0  0
  7  9  1  0  0  0  0
  9 10  1  0  0  0  0
  9 11  2  0  0  0  0
 11 12  2  0  0  0  0
  5 13  2  0  0  0  0
 13 14  1  0  0  0  0
  1 15  1  0  0  0  0
  1 16  1  0  0  0  0
  1 17  1  0  0  0  0
  3 18  1  0  0  0  0
 10 19  1  0  0  0  0
 10 20  1  0  0  0  0
 10 21  1  0  0  0  0
 14 22  1  0  0  0  0
 14 23  1  0  0  0  0
 14 24  1  0  0  0  0
  4 25  1  0  0  0  0
M  CHG  1   1   1
M  END
