 xtb: 6.6.1 (8d0f1dd)
          06052419573D

 25 23  0     0  0            999 V2000
    4.3186    1.3285   -0.0049 C   0  0  0  0  0  0  0  0  0  0  0  0
    3.0570    0.6160    0.0720 N   0  0  0  0  0  0  0  0  0  0  0  0
    3.1007   -0.7339   -0.0691 C   0  0  0  0  0  0  0  0  0  0  0  0
    2.0181   -1.4415    0.0014 N   0  0  0  0  0  0  0  0  0  0  0  0
    1.0522   -2.0505    0.2606 C   0  0  0  0  0  0  0  0  0  0  0  0
    1.9286    1.2312    0.2860 C   0  0  0  0  0  0  0  0  0  0  0  0
    1.2220    2.2636    0.4664 C   0  0  0  0  0  0  0  0  0  0  0  0
    0.3509    3.0269    0.6383 O   0  0  0  0  0  0  0  0  0  0  0  0
   -2.2375    2.7456   -0.8477 N   0  0  0  0  0  0  0  0  0  0  0  0
   -3.3662    2.5897   -0.3613 C   0  0  0  0  0  0  0  0  0  0  0  0
   -2.2483   -1.3877    0.1797 C   0  0  0  0  0  0  0  0  0  0  0  0
   -2.2350   -0.2341    0.2922 O   0  0  0  0  0  0  0  0  0  0  0  0
   -1.9936   -2.5424    0.0327 N   0  0  0  0  0  0  0  0  0  0  0  0
   -2.5588   -3.8485    0.0008 C   0  0  0  0  0  0  0  0  0  0  0  0
    4.9407    1.0812    0.8583 H   0  0  0  0  0  0  0  0  0  0  0  0
    4.8559    1.0509   -0.9121 H   0  0  0  0  0  0  0  0  0  0  0  0
    4.1337    2.4000   -0.0102 H   0  0  0  0  0  0  0  0  0  0  0  0
    4.0359   -1.2214   -0.2777 H   0  0  0  0  0  0  0  0  0  0  0  0
   -1.4476    3.0028   -0.2605 H   0  0  0  0  0  0  0  0  0  0  0  0
   -4.1846    2.3214   -1.0196 H   0  0  0  0  0  0  0  0  0  0  0  0
   -3.6245    2.7018    0.6964 H   0  0  0  0  0  0  0  0  0  0  0  0
   -2.0939   -4.4504    0.7834 H   0  0  0  0  0  0  0  0  0  0  0  0
   -2.3446   -4.2981   -0.9689 H   0  0  0  0  0  0  0  0  0  0  0  0
   -3.6361   -3.8259    0.1575 H   0  0  0  0  0  0  0  0  0  0  0  0
    0.1171   -2.5069    0.0375 H   0  0  0  0  0  0  0  0  0  0  0  0
  1  2  1  0  0  0  0
  2  3  4  0  0  0  0
  3  4  4  0  0  0  0
  4  5  3  0  0  0  0
  2  6  4  0  0  0  0
  6  7  2  0  0  0  0
  7  8  2  0  0  0  0
  9 10  2  0  0  0  0
 11 12  2  0  0  0  0
 11 13  2  0  0  0  0
 12 13  1  0  0  0  0
 13 14  1  0  0  0  0
  1 15  1  0  0  0  0
  1 16  1  0  0  0  0
  1 17  1  0  0  0  0
  3 18  1  0  0  0  0
  9 19  1  0  0  0  0
 10 20  1  0  0  0  0
 10 21  1  0  0  0  0
 14 22  1  0  0  0  0
 14 23  1  0  0  0  0
 14 24  1  0  0  0  0
  5 25  1  0  0  0  0
M  CHG  1   1   1
M  END
