          21
 
C              3.33803347        1.39606267        0.01564589
N              2.44976935        0.26274032        0.00232377
C              2.79107303       -1.01863893       -0.00325488
N              1.69344774       -1.79414177       -0.00535484
C              0.59022042       -0.97823238       -0.00011417
C              1.08458336        0.33263873        0.00484608
C              0.16846866        1.45213089       -0.00221635
O              0.48790371        2.62416115       -0.01158193
N             -1.14680834        1.02183567       -0.00048058
C             -2.18891237        2.02758955       -0.00283274
C             -1.59129292       -0.32316081        0.00264453
O             -2.78441052       -0.53490868        0.00668837
N             -0.67287190       -1.32139903       -0.00103508
H              3.86957039        1.44935793        0.96644962
H              4.06623419        1.31702801       -0.79112214
H              2.74540623        2.30196216       -0.11008282
H              3.80013158       -1.38488743       -0.00676329
H             -1.71824809        3.00884477        0.00324663
H             -2.81420903        1.91157954       -0.88941826
H             -2.82391256        1.90423665        0.87578486
H              1.66869100       -2.80417381       -0.00921580
