 xtb: 6.6.1 (8d0f1dd)
          06052420003D

 25 26  0     0  0            999 V2000
    3.2351    1.2061   -0.0367 C   0  0  0  0  0  0  0  0  0  0  0  0
    2.3295    0.0894   -0.0558 N   0  0  0  0  0  0  0  0  0  0  0  0
    2.6610   -1.2086   -0.0810 C   0  0  0  0  0  0  0  0  0  0  0  0
    1.5383   -1.9680   -0.0564 N   0  0  0  0  0  0  0  0  0  0  0  0
    0.4624   -1.1241   -0.0147 C   0  0  0  0  0  0  0  0  0  0  0  0
    0.9566    0.1770   -0.0124 C   0  0  0  0  0  0  0  0  0  0  0  0
    0.1065    1.3327    0.0307 C   0  0  0  0  0  0  0  0  0  0  0  0
    0.4404    2.4994    0.0461 O   0  0  0  0  0  0  0  0  0  0  0  0
   -1.2529    0.9421    0.0478 N   0  0  0  0  0  0  0  0  0  0  0  0
   -2.2511    1.9981    0.0765 C   0  0  0  0  0  0  0  0  0  0  0  0
   -1.6962   -0.3331    0.0260 C   0  0  0  0  0  0  0  0  0  0  0  0
   -3.0113   -0.5167   -0.0161 O   0  0  0  0  0  0  0  0  0  0  0  0
   -0.8744   -1.4266    0.0326 N   0  0  0  0  0  0  0  0  0  0  0  0
   -1.3574   -2.7001    0.0205 C   0  0  0  0  0  0  0  0  0  0  0  0
    3.7651    1.2477    0.9163 H   0  0  0  0  0  0  0  0  0  0  0  0
    3.9641    1.1161   -0.8412 H   0  0  0  0  0  0  0  0  0  0  0  0
    2.6589    2.1222   -0.1600 H   0  0  0  0  0  0  0  0  0  0  0  0
    3.6583   -1.5947   -0.1163 H   0  0  0  0  0  0  0  0  0  0  0  0
   -1.7165    2.9459    0.0877 H   0  0  0  0  0  0  0  0  0  0  0  0
   -2.8882    1.9377   -0.8047 H   0  0  0  0  0  0  0  0  0  0  0  0
   -2.8696    1.9049    0.9675 H   0  0  0  0  0  0  0  0  0  0  0  0
   -2.3310   -2.9180    0.4086 H   0  0  0  0  0  0  0  0  0  0  0  0
   -0.6686   -3.5005   -0.1008 H   0  0  0  0  0  0  0  0  0  0  0  0
   -3.2130   -1.4344   -0.2725 H   0  0  0  0  0  0  0  0  0  0  0  0
    1.5145   -2.9763   -0.0603 H   0  0  0  0  0  0  0  0  0  0  0  0
  1  2  1  0  0  0  0
  2  3  4  0  0  0  0
  3  4  4  0  0  0  0
  4  5  1  0  0  0  0
  2  6  1  0  0  0  0
  5  6  4  0  0  0  0
  6  7  1  0  0  0  0
  7  8  2  0  0  0  0
  7  9  1  0  0  0  0
  9 10  1  0  0  0  0
  9 11  4  0  0  0  0
 11 12  1  0  0  0  0
  5 13  1  0  0  0  0
 11 13  1  0  0  0  0
 13 14  1  0  0  0  0
  1 15  1  0  0  0  0
  1 16  1  0  0  0  0
  1 17  1  0  0  0  0
  3 18  1  0  0  0  0
 10 19  1  0  0  0  0
 10 20  1  0  0  0  0
 10 21  1  0  0  0  0
 14 22  1  0  0  0  0
 14 23  1  0  0  0  0
 12 24  1  0  0  0  0
  4 25  1  0  0  0  0
M  CHG  1   1   1
M  END
