 xtb: 6.6.1 (8d0f1dd)
          06052420003D

 25 25  0     0  0            999 V2000
    3.0830    0.9704    0.1172 C   0  0  0  0  0  0  0  0  0  0  0  0
    2.0863   -0.0516    0.3262 N   0  0  0  0  0  0  0  0  0  0  0  0
    2.3644   -1.2310    0.8657 C   0  0  0  0  0  0  0  0  0  0  0  0
    1.2483   -1.9647    0.9110 N   0  0  0  0  0  0  0  0  0  0  0  0
    0.2156   -1.2233    0.3854 C   0  0  0  0  0  0  0  0  0  0  0  0
    0.7435    0.0066    0.0201 C   0  0  0  0  0  0  0  0  0  0  0  0
    0.1069    1.2723   -0.5064 C   0  0  0  0  0  0  0  0  0  0  0  0
    0.8178    2.1693   -0.9627 O   0  0  0  0  0  0  0  0  0  0  0  0
   -1.2014    1.2839   -0.3806 N   0  0  0  0  0  0  0  0  0  0  0  0
   -1.9658    2.4269   -0.7260 C   0  0  0  0  0  0  0  0  0  0  0  0
   -1.4537   -2.6207    1.2284 C   0  0  0  0  0  0  0  0  0  0  0  0
   -1.2950   -3.3177    2.1554 O   0  0  0  0  0  0  0  0  0  0  0  0
   -1.0737   -1.7924    0.3203 N   0  0  0  0  0  0  0  0  0  0  0  0
   -1.9592   -1.4480   -0.7910 C   0  0  0  0  0  0  0  0  0  0  0  0
    3.6053    1.1757    1.0503 H   0  0  0  0  0  0  0  0  0  0  0  0
    3.8031    0.6363   -0.6300 H   0  0  0  0  0  0  0  0  0  0  0  0
    2.5952    1.8751   -0.2498 H   0  0  0  0  0  0  0  0  0  0  0  0
    3.3302   -1.5453    1.2108 H   0  0  0  0  0  0  0  0  0  0  0  0
   -1.3475    3.2320   -1.1357 H   0  0  0  0  0  0  0  0  0  0  0  0
   -2.7290    2.1447   -1.4557 H   0  0  0  0  0  0  0  0  0  0  0  0
   -2.4804    2.7880    0.1691 H   0  0  0  0  0  0  0  0  0  0  0  0
   -1.5601   -1.8552   -1.7196 H   0  0  0  0  0  0  0  0  0  0  0  0
   -2.0027   -0.3535   -0.8521 H   0  0  0  0  0  0  0  0  0  0  0  0
   -2.9479   -1.8582   -0.6043 H   0  0  0  0  0  0  0  0  0  0  0  0
    1.1771   -2.9014    1.2854 H   0  0  0  0  0  0  0  0  0  0  0  0
  1  2  1  0  0  0  0
  2  3  4  0  0  0  0
  3  4  4  0  0  0  0
  4  5  1  0  0  0  0
  2  6  1  0  0  0  0
  5  6  4  0  0  0  0
  6  7  1  0  0  0  0
  7  8  2  0  0  0  0
  7  9  4  0  0  0  0
  9 10  1  0  0  0  0
 11 12  2  0  0  0  0
  5 13  1  0  0  0  0
 11 13  4  0  0  0  0
 13 14  1  0  0  0  0
  1 15  1  0  0  0  0
  1 16  1  0  0  0  0
  1 17  1  0  0  0  0
  3 18  1  0  0  0  0
 10 19  1  0  0  0  0
 10 20  1  0  0  0  0
 10 21  1  0  0  0  0
 14 22  1  0  0  0  0
 14 23  1  0  0  0  0
 14 24  1  0  0  0  0
  4 25  1  0  0  0  0
M  CHG  1   1   1
M  END
