 xtb: 6.6.1 (8d0f1dd)
          06052419583D

 25 26  0     0  0            999 V2000
    3.2579    1.2188    0.0103 C   0  0  0  0  0  0  0  0  0  0  0  0
    2.2032    0.2974   -0.1391 N   0  0  0  0  0  0  0  0  0  0  0  0
    3.4733   -0.2576    0.1045 C   0  0  0  0  0  0  0  0  0  0  0  0
    1.1722   -2.1885    0.0778 N   0  0  0  0  0  0  0  0  0  0  0  0
    0.3546   -1.2093    0.0176 C   0  0  0  0  0  0  0  0  0  0  0  0
    0.9036    0.1254   -0.0623 C   0  0  0  0  0  0  0  0  0  0  0  0
    0.0466    1.3046   -0.1053 C   0  0  0  0  0  0  0  0  0  0  0  0
    0.4930    2.4360   -0.1480 O   0  0  0  0  0  0  0  0  0  0  0  0
   -1.3114    1.0415   -0.0859 N   0  0  0  0  0  0  0  0  0  0  0  0
   -2.2335    2.1599   -0.1215 C   0  0  0  0  0  0  0  0  0  0  0  0
   -1.8843   -0.2183   -0.0271 C   0  0  0  0  0  0  0  0  0  0  0  0
   -3.0836   -0.3540   -0.0192 O   0  0  0  0  0  0  0  0  0  0  0  0
   -1.0271   -1.3086    0.0250 N   0  0  0  0  0  0  0  0  0  0  0  0
   -1.6357   -2.6240    0.0920 C   0  0  0  0  0  0  0  0  0  0  0  0
    3.6295   -0.7388    1.0603 H   0  0  0  0  0  0  0  0  0  0  0  0
    3.5798    1.7411   -0.8858 H   0  0  0  0  0  0  0  0  0  0  0  0
    3.2524    1.8469    0.8960 H   0  0  0  0  0  0  0  0  0  0  0  0
    3.9376   -0.7727   -0.7292 H   0  0  0  0  0  0  0  0  0  0  0  0
   -1.6596    3.0734   -0.2720 H   0  0  0  0  0  0  0  0  0  0  0  0
   -2.9530    2.0205   -0.9303 H   0  0  0  0  0  0  0  0  0  0  0  0
   -2.7893    2.2185    0.8172 H   0  0  0  0  0  0  0  0  0  0  0  0
   -1.3555   -3.1278    1.0197 H   0  0  0  0  0  0  0  0  0  0  0  0
   -1.3292   -3.2294   -0.7636 H   0  0  0  0  0  0  0  0  0  0  0  0
   -2.7181   -2.4983    0.0694 H   0  0  0  0  0  0  0  0  0  0  0  0
    0.8370   -3.1385    0.1304 H   0  0  0  0  0  0  0  0  0  0  0  0
  1  2  1  0  0  0  0
  1  3  1  0  0  0  0
  2  3  1  0  0  0  0
  4  5  2  0  0  0  0
  2  6  4  0  0  0  0
  5  6  1  0  0  0  0
  6  7  1  0  0  0  0
  7  8  2  0  0  0  0
  7  9  1  0  0  0  0
  9 10  1  0  0  0  0
  9 11  1  0  0  0  0
 11 12  2  0  0  0  0
  5 13  1  0  0  0  0
 11 13  1  0  0  0  0
 13 14  1  0  0  0  0
  3 15  1  0  0  0  0
  1 16  1  0  0  0  0
  1 17  1  0  0  0  0
  3 18  1  0  0  0  0
 10 19  1  0  0  0  0
 10 20  1  0  0  0  0
 10 21  1  0  0  0  0
 14 22  1  0  0  0  0
 14 23  1  0  0  0  0
 14 24  1  0  0  0  0
  4 25  1  0  0  0  0
M  CHG  1   1   1
M  END
