 xtb: 6.6.1 (8d0f1dd)
          06052419583D

 25 25  0     0  0            999 V2000
    3.2118    1.1234   -0.0589 C   0  0  0  0  0  0  0  0  0  0  0  0
    2.2675    0.0443    0.0461 N   0  0  0  0  0  0  0  0  0  0  0  0
    2.5551   -1.2563    0.1551 C   0  0  0  0  0  0  0  0  0  0  0  0
    1.4127   -1.9735    0.2635 N   0  0  0  0  0  0  0  0  0  0  0  0
    0.3599   -1.0968    0.2206 C   0  0  0  0  0  0  0  0  0  0  0  0
    0.8992    0.1787    0.0810 C   0  0  0  0  0  0  0  0  0  0  0  0
    0.0736    1.3541   -0.0320 C   0  0  0  0  0  0  0  0  0  0  0  0
    0.4687    2.4960   -0.1570 O   0  0  0  0  0  0  0  0  0  0  0  0
   -1.2895    1.0293    0.0153 N   0  0  0  0  0  0  0  0  0  0  0  0
   -2.2380    2.1292   -0.0884 C   0  0  0  0  0  0  0  0  0  0  0  0
   -1.8624   -0.2114    0.1482 C   0  0  0  0  0  0  0  0  0  0  0  0
   -3.0488   -0.3907    0.1726 O   0  0  0  0  0  0  0  0  0  0  0  0
   -0.9728   -1.3460    0.2816 N   0  0  0  0  0  0  0  0  0  0  0  0
   -1.5211   -2.5653    0.4236 C   0  0  0  0  0  0  0  0  0  0  0  0
    3.7916    1.2096    0.8615 H   0  0  0  0  0  0  0  0  0  0  0  0
    3.8966    0.9491   -0.8889 H   0  0  0  0  0  0  0  0  0  0  0  0
    2.6664    2.0525   -0.2240 H   0  0  0  0  0  0  0  0  0  0  0  0
    3.5416   -1.6747    0.1553 H   0  0  0  0  0  0  0  0  0  0  0  0
   -1.6736    3.0590   -0.1289 H   0  0  0  0  0  0  0  0  0  0  0  0
   -2.8432    2.0181   -0.9889 H   0  0  0  0  0  0  0  0  0  0  0  0
   -2.9041    2.1257    0.7747 H   0  0  0  0  0  0  0  0  0  0  0  0
   -0.9084   -3.4121    0.6649 H   0  0  0  0  0  0  0  0  0  0  0  0
   -1.4920   -2.4153   -2.4050 H   0  0  0  0  0  0  0  0  0  0  0  0
   -2.5930   -2.6289    0.4126 H   0  0  0  0  0  0  0  0  0  0  0  0
    1.3624   -2.9796    0.3269 H   0  0  0  0  0  0  0  0  0  0  0  0
  1  2  1  0  0  0  0
  2  3  4  0  0  0  0
  3  4  4  0  0  0  0
  4  5  1  0  0  0  0
  2  6  1  0  0  0  0
  5  6  4  0  0  0  0
  6  7  1  0  0  0  0
  7  8  2  0  0  0  0
  7  9  1  0  0  0  0
  9 10  1  0  0  0  0
  9 11  1  0  0  0  0
 11 12  2  0  0  0  0
  5 13  1  0  0  0  0
 11 13  1  0  0  0  0
 13 14  4  0  0  0  0
  1 15  1  0  0  0  0
  1 16  1  0  0  0  0
  1 17  1  0  0  0  0
  3 18  1  0  0  0  0
 10 19  1  0  0  0  0
 10 20  1  0  0  0  0
 10 21  1  0  0  0  0
 14 22  1  0  0  0  0
 14 24  1  0  0  0  0
  4 25  1  0  0  0  0
M  CHG  1   1   1
M  END
