 xtb: 6.6.1 (8d0f1dd)
          04062411143D

 72 72  0     0  0            999 V2000
   -1.9282    2.8481    2.2067 N   0  0  0  0  0  0  0  0  0  0  0  0
   -1.8971    2.1341    1.1838 C   0  0  0  0  0  0  0  0  0  0  0  0
   -3.0539    1.9208    0.2477 C   0  0  0  0  0  0  0  0  0  0  0  0
   -3.5209    0.4756    0.3368 C   0  0  0  0  0  0  0  0  0  0  0  0
   -4.4505   -0.0103   -0.5849 C   0  0  0  0  0  0  0  0  0  0  0  0
   -4.9158   -1.3135   -0.5258 C   0  0  0  0  0  0  0  0  0  0  0  0
   -5.8164   -1.8586   -1.3680 O   0  0  0  0  0  0  0  0  0  0  0  0
   -6.4320   -1.0482   -2.3416 C   0  0  0  0  0  0  0  0  0  0  0  0
   -4.4317   -2.1843    0.4886 C   0  0  0  0  0  0  0  0  0  0  0  0
   -4.9331   -3.4345    0.4673 O   0  0  0  0  0  0  0  0  0  0  0  0
   -4.5843   -4.3309    1.4966 C   0  0  0  0  0  0  0  0  0  0  0  0
   -3.5101   -1.6951    1.4006 C   0  0  0  0  0  0  0  0  0  0  0  0
   -3.0636   -0.3816    1.3258 C   0  0  0  0  0  0  0  0  0  0  0  0
   -2.5069    2.2105   -1.1746 C   0  0  0  0  0  0  0  0  0  0  0  0
   -1.5742    1.1191   -1.7304 C   0  0  0  0  0  0  0  0  0  0  0  0
   -0.2420    1.0898   -1.0862 C   0  0  0  0  0  0  0  0  0  0  0  0
    0.4090   -0.0034   -0.7117 N   0  0  0  0  0  0  0  0  0  0  0  0
    1.7956    0.0709   -0.3124 C   0  0  0  0  0  0  0  0  0  0  0  0
    2.7336   -0.3982   -1.4407 C   0  0  0  0  0  0  0  0  0  0  0  0
    4.1657   -0.1166   -1.0745 C   0  0  0  0  0  0  0  0  0  0  0  0
    4.7329    1.1126   -1.3817 C   0  0  0  0  0  0  0  0  0  0  0  0
    6.0479    1.3777   -1.0294 C   0  0  0  0  0  0  0  0  0  0  0  0
    6.7976    0.4311   -0.3666 C   0  0  0  0  0  0  0  0  0  0  0  0
   10.1909    0.1754    1.2430 O   0  0  0  0  0  0  0  0  0  0  0  0
   10.0224    1.3393    1.0432 C   0  0  0  0  0  0  0  0  0  0  0  0
    6.2382   -0.8131   -0.0479 C   0  0  0  0  0  0  0  0  0  0  0  0
    7.0520   -1.6704    0.5952 O   0  0  0  0  0  0  0  0  0  0  0  0
    6.5880   -2.9562    0.9339 C   0  0  0  0  0  0  0  0  0  0  0  0
    4.9165   -1.0752   -0.4054 C   0  0  0  0  0  0  0  0  0  0  0  0
   -0.1989   -1.3120   -0.7574 C   0  0  0  0  0  0  0  0  0  0  0  0
   -4.2678    2.8484    0.5514 C   0  0  0  0  0  0  0  0  0  0  0  0
   -4.8875    2.5279    1.9095 C   0  0  0  0  0  0  0  0  0  0  0  0
   -3.9220    4.3331    0.4797 C   0  0  0  0  0  0  0  0  0  0  0  0
   -4.8276    0.6459   -1.3516 H   0  0  0  0  0  0  0  0  0  0  0  0
   -6.9538   -0.2010   -1.8866 H   0  0  0  0  0  0  0  0  0  0  0  0
   -7.1554   -1.6904   -2.8402 H   0  0  0  0  0  0  0  0  0  0  0  0
   -5.7084   -0.6823   -3.0774 H   0  0  0  0  0  0  0  0  0  0  0  0
   -4.8626   -3.9391    2.4793 H   0  0  0  0  0  0  0  0  0  0  0  0
   -5.1493   -5.2392    1.2967 H   0  0  0  0  0  0  0  0  0  0  0  0
   -3.5141   -4.5608    1.4839 H   0  0  0  0  0  0  0  0  0  0  0  0
   -3.1380   -2.3272    2.1904 H   0  0  0  0  0  0  0  0  0  0  0  0
   -2.3698   -0.0290    2.0733 H   0  0  0  0  0  0  0  0  0  0  0  0
   -3.3482    2.3149   -1.8586 H   0  0  0  0  0  0  0  0  0  0  0  0
   -1.9743    3.1620   -1.1605 H   0  0  0  0  0  0  0  0  0  0  0  0
   -2.0699    0.1514   -1.6763 H   0  0  0  0  0  0  0  0  0  0  0  0
   -1.4142    1.3538   -2.7908 H   0  0  0  0  0  0  0  0  0  0  0  0
   -0.9876    1.6114    0.8250 H   0  0  0  0  0  0  0  0  0  0  0  0
    0.3152    2.0153   -1.0594 H   0  0  0  0  0  0  0  0  0  0  0  0
    1.9486   -0.5487    0.5754 H   0  0  0  0  0  0  0  0  0  0  0  0
    2.0415    1.1032   -0.0548 H   0  0  0  0  0  0  0  0  0  0  0  0
    2.4758    0.1419   -2.3537 H   0  0  0  0  0  0  0  0  0  0  0  0
    2.5921   -1.4648   -1.6184 H   0  0  0  0  0  0  0  0  0  0  0  0
    4.1565    1.8577   -1.9087 H   0  0  0  0  0  0  0  0  0  0  0  0
    6.4876    2.3300   -1.2824 H   0  0  0  0  0  0  0  0  0  0  0  0
    9.5740    2.0114    1.7889 H   0  0  0  0  0  0  0  0  0  0  0  0
    7.8224    0.6163   -0.0918 H   0  0  0  0  0  0  0  0  0  0  0  0
   10.3122    1.8325    0.0992 H   0  0  0  0  0  0  0  0  0  0  0  0
    7.4223   -3.4450    1.4329 H   0  0  0  0  0  0  0  0  0  0  0  0
    5.7354   -2.9071    1.6188 H   0  0  0  0  0  0  0  0  0  0  0  0
    6.3124   -3.5296    0.0434 H   0  0  0  0  0  0  0  0  0  0  0  0
    4.4681   -2.0305   -0.1798 H   0  0  0  0  0  0  0  0  0  0  0  0
   -0.3617   -1.6362   -1.7877 H   0  0  0  0  0  0  0  0  0  0  0  0
   -1.1586   -1.3055   -0.2348 H   0  0  0  0  0  0  0  0  0  0  0  0
    0.4562   -2.0288   -0.2688 H   0  0  0  0  0  0  0  0  0  0  0  0
   -5.0188    2.6388   -0.2189 H   0  0  0  0  0  0  0  0  0  0  0  0
   -4.1777    2.7417    2.7022 H   0  0  0  0  0  0  0  0  0  0  0  0
   -5.1821    1.4830    1.9711 H   0  0  0  0  0  0  0  0  0  0  0  0
   -5.7710    3.1422    2.0610 H   0  0  0  0  0  0  0  0  0  0  0  0
   -3.1559    4.5783    1.2089 H   0  0  0  0  0  0  0  0  0  0  0  0
   -3.5824    4.6246   -0.5107 H   0  0  0  0  0  0  0  0  0  0  0  0
   -4.8091    4.9166    0.7117 H   0  0  0  0  0  0  0  0  0  0  0  0
   -1.0766    2.9445    2.7503 H   0  0  0  0  0  0  0  0  0  0  0  0
  1  2  2  0  0  0  0
  2  3  1  0  0  0  0
  3  4  1  0  0  0  0
  4  5  4  0  0  0  0
  5  6  4  0  0  0  0
  6  7  1  0  0  0  0
  7  8  1  0  0  0  0
  6  9  4  0  0  0  0
  9 10  1  0  0  0  0
 10 11  1  0  0  0  0
  9 12  4  0  0  0  0
  4 13  4  0  0  0  0
 12 13  4  0  0  0  0
  3 14  1  0  0  0  0
 14 15  1  0  0  0  0
 15 16  1  0  0  0  0
 16 17  4  0  0  0  0
 17 18  1  0  0  0  0
 18 19  1  0  0  0  0
 19 20  1  0  0  0  0
 20 21  4  0  0  0  0
 21 22  4  0  0  0  0
 22 23  4  0  0  0  0
 24 25  2  0  0  0  0
 23 26  4  0  0  0  0
 26 27  1  0  0  0  0
 27 28  1  0  0  0  0
 20 29  4  0  0  0  0
 26 29  4  0  0  0  0
 17 30  1  0  0  0  0
  3 31  1  0  0  0  0
 31 32  1  0  0  0  0
 31 33  1  0  0  0  0
  5 34  1  0  0  0  0
  8 35  1  0  0  0  0
  8 36  1  0  0  0  0
  8 37  1  0  0  0  0
 11 38  1  0  0  0  0
 11 39  1  0  0  0  0
 11 40  1  0  0  0  0
 12 41  1  0  0  0  0
 13 42  1  0  0  0  0
 14 43  1  0  0  0  0
 14 44  1  0  0  0  0
 15 45  1  0  0  0  0
 15 46  1  0  0  0  0
  2 47  1  0  0  0  0
 16 48  1  0  0  0  0
 18 49  1  0  0  0  0
 18 50  1  0  0  0  0
 19 51  1  0  0  0  0
 19 52  1  0  0  0  0
 21 53  1  0  0  0  0
 22 54  1  0  0  0  0
 25 55  1  0  0  0  0
 23 56  1  0  0  0  0
 25 57  1  0  0  0  0
 28 58  1  0  0  0  0
 28 59  1  0  0  0  0
 28 60  1  0  0  0  0
 29 61  1  0  0  0  0
 30 62  1  0  0  0  0
 30 63  1  0  0  0  0
 30 64  1  0  0  0  0
 31 65  1  0  0  0  0
 32 66  1  0  0  0  0
 32 67  1  0  0  0  0
 32 68  1  0  0  0  0
 33 69  1  0  0  0  0
 33 70  1  0  0  0  0
 33 71  1  0  0  0  0
  1 72  1  0  0  0  0
M  CHG  1   1   1
M  END
