 xtb: 6.6.1 (8d0f1dd)
          06052419583D

 25 26  0     0  0            999 V2000
    3.0884    1.1414   -0.2623 C   0  0  0  0  0  0  0  0  0  0  0  0
    2.1165    0.1462    0.1015 N   0  0  0  0  0  0  0  0  0  0  0  0
    2.3248   -1.1473    0.2175 C   0  0  0  0  0  0  0  0  0  0  0  0
    1.1998   -1.8002    0.5462 N   0  0  0  0  0  0  0  0  0  0  0  0
    0.1182   -0.8656    0.7489 C   0  0  0  0  0  0  0  0  0  0  0  0
    0.7826    0.4152    0.3550 C   0  0  0  0  0  0  0  0  0  0  0  0
    0.0658    1.5439   -0.0445 C   0  0  0  0  0  0  0  0  0  0  0  0
    0.4587    2.6450   -0.3724 O   0  0  0  0  0  0  0  0  0  0  0  0
   -1.3778    1.2709   -0.0639 N   0  0  0  0  0  0  0  0  0  0  0  0
   -2.2070    2.2852   -0.1016 C   0  0  0  0  0  0  0  0  0  0  0  0
   -1.9011   -0.0592   -0.3454 C   0  0  0  0  0  0  0  0  0  0  0  0
   -3.0032   -0.1668   -0.8027 O   0  0  0  0  0  0  0  0  0  0  0  0
   -1.0522   -1.0856   -0.0943 N   0  0  0  0  0  0  0  0  0  0  0  0
   -1.5444   -2.4420   -0.2534 C   0  0  0  0  0  0  0  0  0  0  0  0
    3.6016    1.5079    0.6290 H   0  0  0  0  0  0  0  0  0  0  0  0
    3.8199    0.7180   -0.9473 H   0  0  0  0  0  0  0  0  0  0  0  0
    2.5782    1.9843   -0.7284 H   0  0  0  0  0  0  0  0  0  0  0  0
    3.2691   -1.6328    0.0514 H   0  0  0  0  0  0  0  0  0  0  0  0
   -1.8005    3.2788   -0.0020 H   0  0  0  0  0  0  0  0  0  0  0  0
   -3.2576    2.0992   -0.2545 H   0  0  0  0  0  0  0  0  0  0  0  0
   -0.2291   -0.9014    1.8054 H   0  0  0  0  0  0  0  0  0  0  0  0
   -1.6236   -2.9369    0.7154 H   0  0  0  0  0  0  0  0  0  0  0  0
   -0.8770   -3.0027   -0.9074 H   0  0  0  0  0  0  0  0  0  0  0  0
   -2.5301   -2.3940   -0.7111 H   0  0  0  0  0  0  0  0  0  0  0  0
    1.1404   -2.7831    0.7521 H   0  0  0  0  0  0  0  0  0  0  0  0
  1  2  1  0  0  0  0
  2  3  4  0  0  0  0
  3  4  4  0  0  0  0
  4  5  1  0  0  0  0
  2  6  1  0  0  0  0
  5  6  1  0  0  0  0
  6  7  4  0  0  0  0
  7  8  2  0  0  0  0
  7  9  1  0  0  0  0
  9 10  2  0  0  0  0
  9 11  1  0  0  0  0
 11 12  2  0  0  0  0
  5 13  1  0  0  0  0
 11 13  4  0  0  0  0
 13 14  1  0  0  0  0
  1 15  1  0  0  0  0
  1 16  1  0  0  0  0
  1 17  1  0  0  0  0
  3 18  1  0  0  0  0
 10 19  1  0  0  0  0
 10 20  1  0  0  0  0
  5 21  1  0  0  0  0
 14 22  1  0  0  0  0
 14 23  1  0  0  0  0
 14 24  1  0  0  0  0
  4 25  1  0  0  0  0
M  CHG  1   1   1
M  END
