 xtb: 6.6.1 (8d0f1dd)
          06052419583D

 25 25  0     0  0            999 V2000
    2.0254    1.8067    0.1309 C   0  0  0  0  0  0  0  0  0  0  0  0
    2.0385    0.4027    0.0949 N   0  0  0  0  0  0  0  0  0  0  0  0
    5.1755   -0.7112   -0.3457 C   0  0  0  0  0  0  0  0  0  0  0  0
    0.9763   -2.3402    0.0413 N   0  0  0  0  0  0  0  0  0  0  0  0
    0.2282   -1.3269    0.0374 C   0  0  0  0  0  0  0  0  0  0  0  0
    0.8026    0.0050    0.0709 C   0  0  0  0  0  0  0  0  0  0  0  0
   -0.0678    1.1438    0.0928 C   0  0  0  0  0  0  0  0  0  0  0  0
    0.6453    2.2446    0.1316 O   0  0  0  0  0  0  0  0  0  0  0  0
   -1.3817    1.0551    0.0767 N   0  0  0  0  0  0  0  0  0  0  0  0
   -2.2580    2.2103    0.1045 C   0  0  0  0  0  0  0  0  0  0  0  0
   -2.0035   -0.2289    0.0143 C   0  0  0  0  0  0  0  0  0  0  0  0
   -3.1995   -0.2916   -0.0234 O   0  0  0  0  0  0  0  0  0  0  0  0
   -1.1736   -1.3270    0.0005 N   0  0  0  0  0  0  0  0  0  0  0  0
   -1.8335   -2.6255   -0.0663 C   0  0  0  0  0  0  0  0  0  0  0  0
    2.5257    2.1882    1.0325 H   0  0  0  0  0  0  0  0  0  0  0  0
    6.1374   -0.2513   -0.4523 H   0  0  0  0  0  0  0  0  0  0  0  0
    2.5384    2.2377   -0.7391 H   0  0  0  0  0  0  0  0  0  0  0  0
    4.8769   -1.7372   -0.2767 H   0  0  0  0  0  0  0  0  0  0  0  0
   -1.6550    3.1129    0.1452 H   0  0  0  0  0  0  0  0  0  0  0  0
   -2.8862    2.2118   -0.7864 H   0  0  0  0  0  0  0  0  0  0  0  0
   -2.9111    2.1483    0.9756 H   0  0  0  0  0  0  0  0  0  0  0  0
   -1.6115   -3.2082    0.8292 H   0  0  0  0  0  0  0  0  0  0  0  0
   -1.5037   -3.1667   -0.9538 H   0  0  0  0  0  0  0  0  0  0  0  0
   -2.9076   -2.4637   -0.1263 H   0  0  0  0  0  0  0  0  0  0  0  0
    0.5830   -3.2706    0.0231 H   0  0  0  0  0  0  0  0  0  0  0  0
  1  2  1  0  0  0  0
  4  5  2  0  0  0  0
  2  6  2  0  0  0  0
  5  6  1  0  0  0  0
  6  7  1  0  0  0  0
  1  8  1  0  0  0  0
  7  8  4  0  0  0  0
  7  9  4  0  0  0  0
  9 10  1  0  0  0  0
  9 11  1  0  0  0  0
 11 12  2  0  0  0  0
  5 13  1  0  0  0  0
 11 13  1  0  0  0  0
 13 14  1  0  0  0  0
  1 15  1  0  0  0  0
  3 16  1  0  0  0  0
  1 17  1  0  0  0  0
  3 18  1  0  0  0  0
 10 19  1  0  0  0  0
 10 20  1  0  0  0  0
 10 21  1  0  0  0  0
 14 22  1  0  0  0  0
 14 23  1  0  0  0  0
 14 24  1  0  0  0  0
  4 25  1  0  0  0  0
M  CHG  1   1   1
M  END
