          52
 
N             -1.05077464        4.26506835        2.51363483
C             -1.65749544        3.83569106        1.56191012
C             -2.32589095        3.58929788        0.46417204
C             -1.61281034        3.27940343       -0.82553677
C             -1.35833509        1.77755649       -1.01065094
C             -0.41846206        1.22590502        0.07042862
N              0.26809039        0.04107424       -0.38369005
C              1.65400966       -0.12727109       -0.02057704
C              2.50055430       -0.53793320       -1.24422399
C              3.96230045       -0.44365654       -0.92384214
C              4.64852568        0.74914452       -1.11102074
C              5.99210555        0.85734473       -0.79267461
C              6.68366381       -0.22873336       -0.27198639
O              7.98438254       -0.24180185        0.06950354
C              8.75900649        0.92006238       -0.11741316
C              5.98907836       -1.45547632       -0.06966436
O              6.73417220       -2.45558231        0.43679465
C              6.14626986       -3.71622272        0.65309599
C              4.64328041       -1.53730496       -0.39671021
C             -0.51681774       -1.16465900       -0.36637877
C             -3.84000415        3.63676255        0.45944404
C             -4.45942077        2.97057865        1.62362522
C             -4.28631589        5.12294087        0.42481539
H             -2.22436493        3.63961797       -1.65498260
H             -0.65793555        3.80787576       -0.85595568
H             -2.30567795        1.23682474       -0.99645293
H             -0.88917467        1.62214676       -1.98312118
H             -0.99274704        1.02510407        0.98795285
H              0.32889672        1.98924728        0.29753574
H              1.77190983       -0.88270546        0.76867320
H              2.04648400        0.81800642        0.35925869
H              2.25537655        0.13683896       -2.06484001
H              2.24373903       -1.55348537       -1.54510919
H              4.13377997        1.60500915       -1.52018568
H              6.49783299        1.79471184       -0.95768881
H              8.38017820        1.75485338        0.48005133
H              8.79488334        1.21166681       -1.17135149
H              9.76075499        0.66049645        0.21973423
H              6.94139941       -4.34488637        1.04934707
H              5.33228629       -3.65920791        1.38260116
H              5.77250220       -4.14953090       -0.27965731
H              4.11009256       -2.46392194       -0.25318252
H             -1.47217563       -0.99025578       -0.85645960
H             -0.71587240       -1.51242953        0.65781380
H              0.01033414       -1.94975156       -0.90395978
H             -4.19749330        3.17268256       -0.46713387
H             -3.98468545        3.03804363        2.58647263
H             -5.52384647        2.81516489        1.61383142
H             -3.97675134        5.62490693        1.33764507
H             -3.82545300        5.62296255       -0.42322468
H             -5.36665665        5.19022449        0.33108481
H             -0.69149612        3.72384803        3.28553051
