          21
 
N              2.23588619       -0.36149505       -0.00994523
C              2.35892650       -1.65399533       -0.00759993
N              1.14446870       -2.29052871       -0.00571418
C              0.20532571       -1.31234509       -0.01010684
C              0.90683959       -0.09875993       -0.01354177
C              0.20146793        1.16236710       -0.01303344
O              0.70656488        2.26279355       -0.01949057
N             -1.18365854        0.98455280       -0.00428909
C             -2.01661701        2.17693866        0.00619044
C             -1.88514185       -0.20878224        0.00574552
O             -3.08691219       -0.24108190        0.02262269
N             -1.13538094       -1.39790335       -0.00655601
C             -1.83084826       -2.66666839       -0.00311372
H              3.29436656       -2.17624848       -0.00248238
H             -1.36810985        3.04672256       -0.06936159
H             -2.71531986        2.14720224       -0.83032156
H             -2.59600063        2.21908130        0.92956427
H             -1.56626810       -3.24354281        0.88473679
H             -1.58706532       -3.23690296       -0.90078043
H             -2.90123388       -2.46147251        0.01029153
H              0.99214548       -3.28849789       -0.00744217
