 xtb: 6.6.1 (8d0f1dd)
          06052419593D

 25 25  0     0  0            999 V2000
    3.0448    0.7553    0.0901 C   0  0  0  0  0  0  0  0  0  0  0  0
    2.4379   -0.5724   -0.0045 N   0  0  0  0  0  0  0  0  0  0  0  0
    3.3200   -1.6561   -0.0513 C   0  0  0  0  0  0  0  0  0  0  0  0
    3.0687   -2.8746   -0.0979 N   0  0  0  0  0  0  0  0  0  0  0  0
   -0.0648   -0.1923   -0.0192 C   0  0  0  0  0  0  0  0  0  0  0  0
    1.1425   -0.7448   -0.0178 C   0  0  0  0  0  0  0  0  0  0  0  0
   -0.4163    1.2907   -0.0591 C   0  0  0  0  0  0  0  0  0  0  0  0
    0.3496    2.2154   -0.0909 O   0  0  0  0  0  0  0  0  0  0  0  0
   -1.7737    1.3162   -0.0302 N   0  0  0  0  0  0  0  0  0  0  0  0
   -2.5953    2.5038   -0.0337 C   0  0  0  0  0  0  0  0  0  0  0  0
   -2.3316    0.0378    0.0104 C   0  0  0  0  0  0  0  0  0  0  0  0
   -3.4935   -0.2374    0.0363 O   0  0  0  0  0  0  0  0  0  0  0  0
   -1.2678   -0.8537    0.0168 N   0  0  0  0  0  0  0  0  0  0  0  0
   -1.4463   -2.2769    0.0453 C   0  0  0  0  0  0  0  0  0  0  0  0
    3.6097    0.8349    1.0198 H   0  0  0  0  0  0  0  0  0  0  0  0
    3.7173    0.9007   -0.7563 H   0  0  0  0  0  0  0  0  0  0  0  0
    2.2781    1.5290    0.0686 H   0  0  0  0  0  0  0  0  0  0  0  0
    4.3634   -1.3514   -0.0353 H   0  0  0  0  0  0  0  0  0  0  0  0
   -1.9512    3.3808   -0.0406 H   0  0  0  0  0  0  0  0  0  0  0  0
   -3.2374    2.5013   -0.9161 H   0  0  0  0  0  0  0  0  0  0  0  0
   -3.2290    2.5080    0.8548 H   0  0  0  0  0  0  0  0  0  0  0  0
   -0.9907   -2.7030    0.9411 H   0  0  0  0  0  0  0  0  0  0  0  0
   -0.9972   -2.7343   -0.8385 H   0  0  0  0  0  0  0  0  0  0  0  0
   -2.5175   -2.4772    0.0532 H   0  0  0  0  0  0  0  0  0  0  0  0
    2.1409   -3.2816   -0.1136 H   0  0  0  0  0  0  0  0  0  0  0  0
  1  2  1  0  0  0  0
  2  3  1  0  0  0  0
  3  4  2  0  0  0  0
  2  6  4  0  0  0  0
  5  6  2  0  0  0  0
  5  7  1  0  0  0  0
  7  8  2  0  0  0  0
  7  9  1  0  0  0  0
  9 10  1  0  0  0  0
  9 11  1  0  0  0  0
 11 12  2  0  0  0  0
  5 13  1  0  0  0  0
 11 13  1  0  0  0  0
 13 14  1  0  0  0  0
  1 15  1  0  0  0  0
  1 16  1  0  0  0  0
  1 17  1  0  0  0  0
  3 18  1  0  0  0  0
 10 19  1  0  0  0  0
 10 20  1  0  0  0  0
 10 21  1  0  0  0  0
 14 22  1  0  0  0  0
 14 23  1  0  0  0  0
 14 24  1  0  0  0  0
  4 25  1  0  0  0  0
M  CHG  1   1   1
M  END
