 xtb: 6.6.1 (8d0f1dd)
          04062411153D

 72 74  0     0  0            999 V2000
   -1.3362    2.3778    2.2450 N   0  0  0  0  0  0  0  0  0  0  0  0
   -1.1942    1.5792    1.2930 C   0  0  0  0  0  0  0  0  0  0  0  0
   -2.2023    1.4104    0.1814 C   0  0  0  0  0  0  0  0  0  0  0  0
   -2.5622   -0.1308    0.1050 C   0  0  0  0  0  0  0  0  0  0  0  0
   -3.8071   -0.4010   -0.6645 C   0  0  0  0  0  0  0  0  0  0  0  0
   -4.8195   -1.1920   -0.2143 C   0  0  0  0  0  0  0  0  0  0  0  0
   -5.9707   -1.4530   -0.8683 O   0  0  0  0  0  0  0  0  0  0  0  0
   -6.2193   -0.8252   -2.1050 C   0  0  0  0  0  0  0  0  0  0  0  0
   -4.7199   -1.8457    1.0646 C   0  0  0  0  0  0  0  0  0  0  0  0
   -5.7582   -2.6036    1.4050 O   0  0  0  0  0  0  0  0  0  0  0  0
   -5.7712   -3.2692    2.6499 C   0  0  0  0  0  0  0  0  0  0  0  0
   -3.5695   -1.6265    1.8432 C   0  0  0  0  0  0  0  0  0  0  0  0
   -2.5718   -0.8035    1.4251 C   0  0  0  0  0  0  0  0  0  0  0  0
   -1.4391    1.8805   -1.0611 C   0  0  0  0  0  0  0  0  0  0  0  0
   -1.5827    1.3345   -2.4528 C   0  0  0  0  0  0  0  0  0  0  0  0
   -0.2804    1.1597   -1.7349 C   0  0  0  0  0  0  0  0  0  0  0  0
    0.1811   -0.1295   -1.3003 N   0  0  0  0  0  0  0  0  0  0  0  0
    1.5004   -0.0886   -0.6960 C   0  0  0  0  0  0  0  0  0  0  0  0
    2.6761   -0.0623   -1.7001 C   0  0  0  0  0  0  0  0  0  0  0  0
    3.9765    0.1740   -0.9921 C   0  0  0  0  0  0  0  0  0  0  0  0
    4.5049    1.4527   -0.8786 C   0  0  0  0  0  0  0  0  0  0  0  0
    5.7105    1.6716   -0.2319 C   0  0  0  0  0  0  0  0  0  0  0  0
    6.4145    0.6134    0.3276 C   0  0  0  0  0  0  0  0  0  0  0  0
    7.5937    0.7043    0.9673 O   0  0  0  0  0  0  0  0  0  0  0  0
    8.2296    1.9577    1.0705 C   0  0  0  0  0  0  0  0  0  0  0  0
    5.8740   -0.7009    0.2319 C   0  0  0  0  0  0  0  0  0  0  0  0
    6.6174   -1.6660    0.8053 O   0  0  0  0  0  0  0  0  0  0  0  0
    6.1832   -3.0038    0.7428 C   0  0  0  0  0  0  0  0  0  0  0  0
    4.6684   -0.8942   -0.4254 C   0  0  0  0  0  0  0  0  0  0  0  0
    0.0105   -1.2272   -2.2385 C   0  0  0  0  0  0  0  0  0  0  0  0
   -3.4893    2.2652    0.3721 C   0  0  0  0  0  0  0  0  0  0  0  0
   -4.2500    1.8804    1.6394 C   0  0  0  0  0  0  0  0  0  0  0  0
   -3.2314    3.7732    0.3970 C   0  0  0  0  0  0  0  0  0  0  0  0
   -3.9056    0.0741   -1.6253 H   0  0  0  0  0  0  0  0  0  0  0  0
   -6.2145    0.2647   -2.0089 H   0  0  0  0  0  0  0  0  0  0  0  0
   -7.2118   -1.1554   -2.4049 H   0  0  0  0  0  0  0  0  0  0  0  0
   -5.4930   -1.1316   -2.8640 H   0  0  0  0  0  0  0  0  0  0  0  0
   -5.7316   -2.5594    3.4809 H   0  0  0  0  0  0  0  0  0  0  0  0
   -6.7145   -3.8109    2.6817 H   0  0  0  0  0  0  0  0  0  0  0  0
   -4.9424   -3.9778    2.7314 H   0  0  0  0  0  0  0  0  0  0  0  0
   -3.4860   -2.1078    2.8049 H   0  0  0  0  0  0  0  0  0  0  0  0
   -1.7132   -0.6637    2.0618 H   0  0  0  0  0  0  0  0  0  0  0  0
   -1.2798    2.9504   -1.0119 H   0  0  0  0  0  0  0  0  0  0  0  0
   -1.6979   -0.5401   -0.4462 H   0  0  0  0  0  0  0  0  0  0  0  0
   -2.1854    0.4598   -2.6203 H   0  0  0  0  0  0  0  0  0  0  0  0
   -1.6203    2.0365   -3.2724 H   0  0  0  0  0  0  0  0  0  0  0  0
   -0.3048    0.9521    1.1461 H   0  0  0  0  0  0  0  0  0  0  0  0
    0.5242    1.8210   -2.0530 H   0  0  0  0  0  0  0  0  0  0  0  0
    1.6044   -0.9680   -0.0529 H   0  0  0  0  0  0  0  0  0  0  0  0
    1.5618    0.8037   -0.0681 H   0  0  0  0  0  0  0  0  0  0  0  0
    2.5055    0.7343   -2.4265 H   0  0  0  0  0  0  0  0  0  0  0  0
    2.7160   -1.0128   -2.2330 H   0  0  0  0  0  0  0  0  0  0  0  0
    3.9825    2.2918   -1.3124 H   0  0  0  0  0  0  0  0  0  0  0  0
    6.1007    2.6745   -0.1736 H   0  0  0  0  0  0  0  0  0  0  0  0
    7.6240    2.6690    1.6402 H   0  0  0  0  0  0  0  0  0  0  0  0
    8.4527    2.3749    0.0840 H   0  0  0  0  0  0  0  0  0  0  0  0
    9.1606    1.7698    1.6021 H   0  0  0  0  0  0  0  0  0  0  0  0
    6.9488   -3.5835    1.2550 H   0  0  0  0  0  0  0  0  0  0  0  0
    5.2248   -3.1381    1.2543 H   0  0  0  0  0  0  0  0  0  0  0  0
    6.0984   -3.3502   -0.2917 H   0  0  0  0  0  0  0  0  0  0  0  0
    4.2593   -1.8881   -0.5177 H   0  0  0  0  0  0  0  0  0  0  0  0
    0.4830   -1.0356   -3.2078 H   0  0  0  0  0  0  0  0  0  0  0  0
   -1.0481   -1.4188   -2.4108 H   0  0  0  0  0  0  0  0  0  0  0  0
    0.4466   -2.1237   -1.8011 H   0  0  0  0  0  0  0  0  0  0  0  0
   -4.1321    2.0560   -0.4903 H   0  0  0  0  0  0  0  0  0  0  0  0
   -3.6247    2.0447    2.5113 H   0  0  0  0  0  0  0  0  0  0  0  0
   -4.5711    0.8446    1.6179 H   0  0  0  0  0  0  0  0  0  0  0  0
   -5.1361    2.5033    1.7321 H   0  0  0  0  0  0  0  0  0  0  0  0
   -2.4929    4.0189    1.1535 H   0  0  0  0  0  0  0  0  0  0  0  0
   -2.9059    4.1511   -0.5683 H   0  0  0  0  0  0  0  0  0  0  0  0
   -4.1571    4.2842    0.6489 H   0  0  0  0  0  0  0  0  0  0  0  0
   -0.5836    2.4388    2.9240 H   0  0  0  0  0  0  0  0  0  0  0  0
  1  2  2  0  0  0  0
  2  3  1  0  0  0  0
  3  4  1  0  0  0  0
  4  5  1  0  0  0  0
  5  6  2  0  0  0  0
  6  7  1  0  0  0  0
  7  8  1  0  0  0  0
  6  9  1  0  0  0  0
  9 10  1  0  0  0  0
 10 11  1  0  0  0  0
  9 12  4  0  0  0  0
  4 13  1  0  0  0  0
 12 13  2  0  0  0  0
  3 14  1  0  0  0  0
 14 15  1  0  0  0  0
 14 16  1  0  0  0  0
 15 16  1  0  0  0  0
 16 17  1  0  0  0  0
 17 18  1  0  0  0  0
 18 19  1  0  0  0  0
 19 20  1  0  0  0  0
 20 21  4  0  0  0  0
 21 22  4  0  0  0  0
 22 23  4  0  0  0  0
 23 24  1  0  0  0  0
 24 25  1  0  0  0  0
 23 26  4  0  0  0  0
 26 27  1  0  0  0  0
 27 28  1  0  0  0  0
 20 29  4  0  0  0  0
 26 29  4  0  0  0  0
 17 30  1  0  0  0  0
  3 31  1  0  0  0  0
 31 32  1  0  0  0  0
 31 33  1  0  0  0  0
  5 34  1  0  0  0  0
  8 35  1  0  0  0  0
  8 36  1  0  0  0  0
  8 37  1  0  0  0  0
 11 38  1  0  0  0  0
 11 39  1  0  0  0  0
 11 40  1  0  0  0  0
 12 41  1  0  0  0  0
 13 42  1  0  0  0  0
 14 43  1  0  0  0  0
  4 44  1  0  0  0  0
 15 45  1  0  0  0  0
 15 46  1  0  0  0  0
  2 47  1  0  0  0  0
 16 48  1  0  0  0  0
 18 49  1  0  0  0  0
 18 50  1  0  0  0  0
 19 51  1  0  0  0  0
 19 52  1  0  0  0  0
 21 53  1  0  0  0  0
 22 54  1  0  0  0  0
 25 55  1  0  0  0  0
 25 56  1  0  0  0  0
 25 57  1  0  0  0  0
 28 58  1  0  0  0  0
 28 59  1  0  0  0  0
 28 60  1  0  0  0  0
 29 61  1  0  0  0  0
 30 62  1  0  0  0  0
 30 63  1  0  0  0  0
 30 64  1  0  0  0  0
 31 65  1  0  0  0  0
 32 66  1  0  0  0  0
 32 67  1  0  0  0  0
 32 68  1  0  0  0  0
 33 69  1  0  0  0  0
 33 70  1  0  0  0  0
 33 71  1  0  0  0  0
  1 72  1  0  0  0  0
M  CHG  1   1   1
M  END
