 xtb: 6.6.1 (8d0f1dd)
          06052419593D

 25 25  0     0  0            999 V2000
    3.2442    1.2394    0.0191 C   0  0  0  0  0  0  0  0  0  0  0  0
    2.2750    0.1811    0.0002 N   0  0  0  0  0  0  0  0  0  0  0  0
    2.5136   -1.1526   -0.0061 C   0  0  0  0  0  0  0  0  0  0  0  0
    1.4140   -1.8728   -0.0069 N   0  0  0  0  0  0  0  0  0  0  0  0
    0.3993   -0.9834   -0.0000 C   0  0  0  0  0  0  0  0  0  0  0  0
    0.9201    0.3209    0.0052 C   0  0  0  0  0  0  0  0  0  0  0  0
    0.0663    1.4841   -0.0020 C   0  0  0  0  0  0  0  0  0  0  0  0
    0.4373    2.6360   -0.0120 O   0  0  0  0  0  0  0  0  0  0  0  0
   -1.2827    1.1283    0.0003 N   0  0  0  0  0  0  0  0  0  0  0  0
   -2.2628    2.2000   -0.0027 C   0  0  0  0  0  0  0  0  0  0  0  0
   -1.8186   -0.1539    0.0029 C   0  0  0  0  0  0  0  0  0  0  0  0
   -3.0082   -0.3357    0.0058 O   0  0  0  0  0  0  0  0  0  0  0  0
   -0.9238   -1.2292    0.0006 N   0  0  0  0  0  0  0  0  0  0  0  0
   -1.4311   -2.5796   -0.0022 C   0  0  0  0  0  0  0  0  0  0  0  0
    3.7527    1.2695    0.9851 H   0  0  0  0  0  0  0  0  0  0  0  0
    3.9905    1.0797   -0.7596 H   0  0  0  0  0  0  0  0  0  0  0  0
    2.7391    2.1904   -0.1434 H   0  0  0  0  0  0  0  0  0  0  0  0
    3.5009   -1.5711   -0.0110 H   0  0  0  0  0  0  0  0  0  0  0  0
   -1.7331    3.1505    0.0047 H   0  0  0  0  0  0  0  0  0  0  0  0
   -2.8946    2.1246   -0.8896 H   0  0  0  0  0  0  0  0  0  0  0  0
   -2.9074    2.1166    0.8741 H   0  0  0  0  0  0  0  0  0  0  0  0
   -1.0681   -3.1107    0.8792 H   0  0  0  0  0  0  0  0  0  0  0  0
   -1.0835   -3.1018   -0.8952 H   0  0  0  0  0  0  0  0  0  0  0  0
   -2.5193   -2.5404    0.0069 H   0  0  0  0  0  0  0  0  0  0  0  0
    0.8409   -4.6717   -0.0223 H   0  0  0  0  0  0  0  0  0  0  0  0
  1  2  1  0  0  0  0
  2  3  4  0  0  0  0
  3  4  4  0  0  0  0
  4  5  4  0  0  0  0
  2  6  4  0  0  0  0
  5  6  4  0  0  0  0
  6  7  1  0  0  0  0
  7  8  2  0  0  0  0
  7  9  1  0  0  0  0
  9 10  1  0  0  0  0
  9 11  1  0  0  0  0
 11 12  2  0  0  0  0
  5 13  4  0  0  0  0
 11 13  1  0  0  0  0
 13 14  1  0  0  0  0
  1 15  1  0  0  0  0
  1 16  1  0  0  0  0
  1 17  1  0  0  0  0
  3 18  1  0  0  0  0
 10 19  1  0  0  0  0
 10 20  1  0  0  0  0
 10 21  1  0  0  0  0
 14 22  1  0  0  0  0
 14 23  1  0  0  0  0
 14 24  1  0  0  0  0
M  CHG  1   1   1
M  END
