 xtb: 6.6.1 (8d0f1dd)
          06052419573D

 25 27  0     0  0            999 V2000
    3.2425    1.0864   -0.5452 C   0  0  0  0  0  0  0  0  0  0  0  0
    2.2893    0.1463   -0.0620 N   0  0  0  0  0  0  0  0  0  0  0  0
    2.4492   -0.9550    0.8459 C   0  0  0  0  0  0  0  0  0  0  0  0
    1.4741   -2.0218    0.4670 N   0  0  0  0  0  0  0  0  0  0  0  0
    0.9961   -0.8668    1.1382 C   0  0  0  0  0  0  0  0  0  0  0  0
    0.9426    0.2039    0.1035 C   0  0  0  0  0  0  0  0  0  0  0  0
    0.0336    1.0857   -0.4901 C   0  0  0  0  0  0  0  0  0  0  0  0
    0.1873    1.9151   -1.3427 O   0  0  0  0  0  0  0  0  0  0  0  0
   -1.3873    0.9135    0.0542 N   0  0  0  0  0  0  0  0  0  0  0  0
   -1.9283    2.0333    0.8040 C   0  0  0  0  0  0  0  0  0  0  0  0
   -2.0973   -0.0690   -0.3069 C   0  0  0  0  0  0  0  0  0  0  0  0
   -3.3088   -0.5292   -0.1941 O   0  0  0  0  0  0  0  0  0  0  0  0
   -2.2293   -1.1587   -1.0680 N   0  0  0  0  0  0  0  0  0  0  0  0
   -1.7891   -2.4753   -0.7285 C   0  0  0  0  0  0  0  0  0  0  0  0
    3.6931    1.6534    0.2760 H   0  0  0  0  0  0  0  0  0  0  0  0
    4.0381    0.5510   -1.0666 H   0  0  0  0  0  0  0  0  0  0  0  0
    2.7475    1.7767   -1.2271 H   0  0  0  0  0  0  0  0  0  0  0  0
    3.3531   -1.1489    1.3880 H   0  0  0  0  0  0  0  0  0  0  0  0
   -1.7104    2.9492    0.2510 H   0  0  0  0  0  0  0  0  0  0  0  0
   -3.0058    1.9223    0.9266 H   0  0  0  0  0  0  0  0  0  0  0  0
   -1.4432    2.0776    1.7811 H   0  0  0  0  0  0  0  0  0  0  0  0
   -1.7750   -2.6655    0.3470 H   0  0  0  0  0  0  0  0  0  0  0  0
   -0.7772   -2.5677   -1.1271 H   0  0  0  0  0  0  0  0  0  0  0  0
   -2.4427   -3.1869   -1.2305 H   0  0  0  0  0  0  0  0  0  0  0  0
    1.6084   -2.8515    1.0374 H   0  0  0  0  0  0  0  0  0  0  0  0
  1  2  1  0  0  0  0
  2  3  1  0  0  0  0
  3  4  1  0  0  0  0
  3  5  1  0  0  0  0
  4  5  1  0  0  0  0
  2  6  4  0  0  0  0
  5  6  1  0  0  0  0
  6  7  4  0  0  0  0
  7  8  2  0  0  0  0
  7  9  1  0  0  0  0
  9 10  1  0  0  0  0
  9 11  2  0  0  0  0
 11 12  1  0  0  0  0
 11 13  1  0  0  0  0
 12 13  1  0  0  0  0
 13 14  1  0  0  0  0
  1 15  1  0  0  0  0
  1 16  1  0  0  0  0
  1 17  1  0  0  0  0
  3 18  1  0  0  0  0
 10 19  1  0  0  0  0
 10 20  1  0  0  0  0
 10 21  1  0  0  0  0
 14 22  1  0  0  0  0
 14 23  1  0  0  0  0
 14 24  1  0  0  0  0
  4 25  1  0  0  0  0
M  CHG  1   1   1
M  END
