 xtb: 6.6.1 (8d0f1dd)
          06052420003D

 25 26  0     0  0            999 V2000
    3.2494    0.9854    0.0410 C   0  0  0  0  0  0  0  0  0  0  0  0
    3.4047   -0.3655    0.0158 N   0  0  0  0  0  0  0  0  0  0  0  0
    2.6643   -1.3693   -0.0052 C   0  0  0  0  0  0  0  0  0  0  0  0
    1.2833   -1.5260   -0.0147 N   0  0  0  0  0  0  0  0  0  0  0  0
    0.1841   -0.7179   -0.0054 C   0  0  0  0  0  0  0  0  0  0  0  0
   -0.0435    0.6801   -0.0077 C   0  0  0  0  0  0  0  0  0  0  0  0
    0.7763    1.7870   -0.0127 C   0  0  0  0  0  0  0  0  0  0  0  0
    0.7340    2.9660   -0.0468 O   0  0  0  0  0  0  0  0  0  0  0  0
   -1.4378    0.8626   -0.0056 N   0  0  0  0  0  0  0  0  0  0  0  0
   -2.1745    2.0997   -0.0063 C   0  0  0  0  0  0  0  0  0  0  0  0
   -2.0651   -0.3488   -0.0010 C   0  0  0  0  0  0  0  0  0  0  0  0
   -3.2374   -0.5867    0.0043 O   0  0  0  0  0  0  0  0  0  0  0  0
   -1.0328   -1.3123   -0.0020 N   0  0  0  0  0  0  0  0  0  0  0  0
   -1.3418   -2.7185    0.0004 C   0  0  0  0  0  0  0  0  0  0  0  0
    3.6761    1.4158    0.9505 H   0  0  0  0  0  0  0  0  0  0  0  0
    3.7081    1.4522   -0.8347 H   0  0  0  0  0  0  0  0  0  0  0  0
    2.1120    1.3260    0.0276 H   0  0  0  0  0  0  0  0  0  0  0  0
    3.1677   -2.3272   -0.0201 H   0  0  0  0  0  0  0  0  0  0  0  0
   -1.4993    2.9506    0.0118 H   0  0  0  0  0  0  0  0  0  0  0  0
   -2.7993    2.1514   -0.8996 H   0  0  0  0  0  0  0  0  0  0  0  0
   -2.8264    2.1333    0.8680 H   0  0  0  0  0  0  0  0  0  0  0  0
   -0.9537   -3.2109    0.8939 H   0  0  0  0  0  0  0  0  0  0  0  0
   -0.9694   -3.2106   -0.9000 H   0  0  0  0  0  0  0  0  0  0  0  0
   -2.4303   -2.7941    0.0094 H   0  0  0  0  0  0  0  0  0  0  0  0
    1.0117   -2.5042   -0.0294 H   0  0  0  0  0  0  0  0  0  0  0  0
  1  2  1  0  0  0  0
  2  3  2  0  0  0  0
  3  4  1  0  0  0  0
  4  5  1  0  0  0  0
  5  6  4  0  0  0  0
  6  7  4  0  0  0  0
  7  8  2  0  0  0  0
  6  9  1  0  0  0  0
  9 10  1  0  0  0  0
  9 11  1  0  0  0  0
 11 12  2  0  0  0  0
  5 13  4  0  0  0  0
 11 13  1  0  0  0  0
 13 14  1  0  0  0  0
  1 15  1  0  0  0  0
  1 16  1  0  0  0  0
  1 17  1  0  0  0  0
  7 17  1  0  0  0  0
  3 18  1  0  0  0  0
 10 19  1  0  0  0  0
 10 20  1  0  0  0  0
 10 21  1  0  0  0  0
 14 22  1  0  0  0  0
 14 23  1  0  0  0  0
 14 24  1  0  0  0  0
  4 25  1  0  0  0  0
M  CHG  1   1   1
M  END
