          38
 
C             -2.22100177        2.33547495       -2.64463090
C             -1.71498851        1.05489168       -2.11787386
C             -0.40296276        1.13469140       -1.45172050
N              0.18954067        0.09741683       -0.88223139
C              1.55046457        0.18514848       -0.40683369
C              2.54282934       -0.35660006       -1.45531489
C              3.95945131       -0.22962210       -0.96847283
C              4.65027289        0.96290060       -1.11619630
C              5.95825038        1.08527051       -0.67501501
C              6.60434675        0.01457534       -0.07273773
O              7.87168386        0.01448208        0.37751115
C              8.65613307        1.17603140        0.22736563
C              5.90005587       -1.21042485        0.09343667
O              6.60008886       -2.19743873        0.68631694
C              6.00632925       -3.46312901        0.85076174
C              4.59117189       -1.30763155       -0.35336285
C             -0.43851610       -1.19928631       -0.87604014
H             -3.20092662        2.37234354       -3.07743640
H             -1.55493653        3.15704711       -2.82198427
H             -2.45745491        0.61078474       -1.42781500
H             -1.65137660        0.31233008       -2.93806367
H              0.11682191        2.07861780       -1.42289757
H              1.64429871       -0.38972783        0.51761004
H              1.79018675        1.22733178       -0.18966387
H              2.41777536        0.21434832       -2.37735649
H              2.31577003       -1.40271230       -1.66468744
H              4.17569649        1.80615278       -1.59427881
H              6.47275019        2.02183846       -0.81358459
H              8.22822218        2.02170689        0.77408417
H              8.77597050        1.44376477       -0.82666811
H              9.62820063        0.92835194        0.64960879
H              6.76561002       -4.08285015        1.32399901
H              5.12599157       -3.41296616        1.49951833
H              5.72862195       -3.90361097       -0.11193123
H              4.05321328       -2.23603263       -0.24161067
H             -0.58715738       -1.57189425       -1.89276637
H             -1.41312892       -1.14710228       -0.38555956
H              0.18559940       -1.90433069       -0.33339295
