          24
 
C              3.22027697        1.12154001        0.01268703
N              2.26538481        0.04536907       -0.00245251
C              2.52954926       -1.25303961       -0.00570700
N              1.37839458       -1.95656628       -0.00827085
C              0.34183493       -1.07109051       -0.00622981
C              0.89669644        0.20239084        0.00015245
C              0.09429243        1.39243168       -0.01177151
O              0.48348315        2.53937666       -0.03426488
N             -1.30143948        1.07789577        0.00238252
C             -2.16051535        2.10829452       -0.00072877
C             -1.87230834       -0.23479769        0.00019448
O             -3.06014486       -0.39503422        0.01075831
N             -0.98460390       -1.30742391       -0.01371983
C             -1.51556287       -2.65927890       -0.01555118
H              3.69474936        1.19286583        0.99238081
H              3.99032952        0.95443970       -0.73923903
H              2.69850576        2.05560382       -0.19227446
H              3.51030670       -1.68694897       -0.00811410
H             -1.76605716        3.11568767        0.08881835
H             -3.21103289        1.89633383        0.01801690
H             -1.19931532       -3.19177695        0.88125439
H             -1.18952879       -3.19338612       -0.90771413
H             -2.60165612       -2.58817625       -0.02087971
H              1.31098228       -2.96455797       -0.01289573
