          71
 
N             -1.37845782        2.56410556        2.60057958
C             -1.39619509        1.74694121        1.65558572
C             -2.43980547        1.75085986        0.56201327
C             -3.14851392        0.40917748        0.51408824
C             -4.07723228        0.15547661       -0.49729414
C             -4.74568319       -1.05649041       -0.58092430
O             -5.64118744       -1.38566453       -1.52938396
C             -5.98713806       -0.44122461       -2.51612054
C             -4.49067488       -2.06625110        0.39039756
O             -5.16543602       -3.21552298        0.22076360
C             -4.99974537       -4.25813906        1.15427803
C             -3.59575985       -1.79102321        1.41448158
C             -2.93975369       -0.57021780        1.47729814
C             -1.64367548        2.01258241       -0.72378310
C             -1.64429755        1.15643499       -1.94731639
C             -0.38073949        1.25664089       -1.16793679
N              0.16836559        0.15477846       -0.45229809
C              1.58159624        0.23908495       -0.17067809
C              2.49164834       -0.07155087       -1.38023365
C              3.93079702       -0.02125386       -0.96773669
C              4.66799934        1.15016871       -1.08119562
C              5.99300723        1.19832156       -0.68126176
C              6.61306977        0.07418784       -0.14910996
O              7.88807584        0.00166655        0.26290581
C              8.72024178        1.13357833        0.14851644
C              5.86167533       -1.13027048       -0.01652674
O              6.53447743       -2.16840516        0.50977326
C              5.88669556       -3.40952211        0.66248226
C              4.53710149       -1.15217906       -0.42648918
C             -0.32166549       -1.17155633       -0.75121776
C             -3.52674308        2.85591651        0.76429891
C             -4.33749098        2.58468347        2.03121383
C             -2.98593489        4.28294050        0.81592700
H             -4.28574835        0.92332616       -1.22407537
H             -6.43490734        0.45359633       -2.07431827
H             -6.72090892       -0.93702635       -3.14823635
H             -5.12139115       -0.15638507       -3.12229484
H             -5.30748885       -3.94948733        2.15759337
H             -5.64563275       -5.06338058        0.80997293
H             -3.96386605       -4.61022301        1.18153423
H             -3.40333940       -2.52537329        2.17940477
H             -2.27020096       -0.39097316        2.30289659
H             -1.54992013        3.07408193       -0.91218240
H             -2.17800522        0.22052005       -1.94877440
H             -1.72149137        1.68447988       -2.95272122
H             -0.63123762        0.97568208        1.49658711
H              0.39012491        1.91688691       -1.55487809
H              1.80705928       -0.47181260        0.62904192
H              1.80404012        1.24370061        0.19689053
H              2.30082681        0.65682355       -2.16934237
H              2.24959183       -1.06457996       -1.75984332
H              4.21161060        2.03519528       -1.49727089
H              6.54163961        2.11935124       -0.79139836
H              8.34392135        1.96886607        0.74642982
H              8.82557345        1.44782063       -0.89398051
H              9.68997029        0.82248920        0.53217446
H              6.63202087       -4.07757011        1.08959248
H              5.03427397       -3.33495093        1.34496256
H              5.55225283       -3.80796334       -0.30015919
H              3.96299359       -2.06154474       -0.34096263
H             -0.17808518       -1.44431983       -1.80301148
H             -1.38248172       -1.23852649       -0.51430910
H              0.20776985       -1.88947778       -0.12764400
H             -4.20214872        2.78650823       -0.09554044
H             -3.70857431        2.71542758        2.90723966
H             -4.74512493        1.57639553        2.03719038
H             -5.16475609        3.28702237        2.09423049
H             -2.21651176        4.37001739        1.57741044
H             -2.58636646        4.61312692       -0.13999939
H             -3.79911392        4.95593050        1.07618268
H             -0.61950143        2.50711109        3.27151159
