          68
 
N             -1.82366826        2.62787980        2.58423676
C             -1.77797172        2.09489565        1.45741781
C             -2.91142181        2.08534508        0.46904321
C             -3.46622018        0.67689387        0.34562657
C             -4.44608379        0.39310646       -0.60918162
C             -4.96166464       -0.87847061       -0.76817853
O             -5.92380708       -1.22858599       -1.62988046
C             -6.57587242       -0.24753876       -2.40150195
C             -4.46153391       -1.99945128        0.03953293
O             -4.86146130       -3.15663456       -0.13157028
C             -3.48733588       -1.64193560        1.02788610
C             -3.02037219       -0.36238336        1.17150257
C             -2.30001438        2.51886884       -0.89056325
C             -1.43176239        1.44126359       -1.56593312
C             -0.11419370        1.23968574       -0.92239335
N              0.46825404        0.06820499       -0.71678047
C              1.84682913       -0.00318055       -0.28934481
C              2.78794208       -0.37712700       -1.45185017
C              4.22093176       -0.26818693       -1.00932517
C              4.90670884        0.92961999       -1.13912430
C              6.22124286        1.04588967       -0.71629748
C              6.87859988       -0.03594807       -0.14692705
O              8.14832611       -0.03860797        0.29417007
C              8.92633415        1.12968603        0.16503174
C              6.18138335       -1.26900039       -0.00377475
O              6.89292003       -2.26520493        0.55577350
C              6.30338028       -3.53387545        0.71561025
C              4.86628075       -1.36034178       -0.43463775
C             -0.19712873       -1.18238475       -0.99544562
C             -4.07260893        3.04709486        0.86430844
C             -4.77480771        2.57669728        2.13582080
C             -3.62623459        4.49724592        1.02419137
H             -4.81947052        1.19031352       -1.23344350
H             -7.04769691        0.50978886       -1.76669554
H             -7.34307669       -0.77732880       -2.96315406
H             -5.88675189        0.23797479       -3.10085068
H             -3.13906605       -2.43586004        1.66993379
H             -2.30283359       -0.15017639        1.95089535
H             -3.11154797        2.77034391       -1.57240821
H             -1.70352534        3.41931426       -0.73985829
H             -1.99243416        0.51018961       -1.63339693
H             -1.23979018        1.78783805       -2.59001935
H             -0.87539064        1.59974254        1.04468562
H              0.49052838        2.11718418       -0.74188428
H              1.93747797       -0.74767438        0.50629857
H              2.15139690        0.96554900        0.11199179
H              2.60702559        0.30740345       -2.28250985
H              2.57422099       -1.39228652       -1.78769577
H              4.42210903        1.78368013       -1.58736152
H              6.73039499        1.98750890       -0.83971558
H              8.50098796        1.95945764        0.73759825
H              9.03364669        1.42487638       -0.88290939
H              9.90382633        0.87577317        0.57042124
H              7.07277873       -4.15856635        1.16515585
H              5.43677166       -3.49212901        1.38300862
H              6.00619951       -3.96218239       -0.24646967
H              4.33366169       -2.29361233       -0.33969309
H             -0.33773779       -1.32314179       -2.06885724
H             -1.17304051       -1.21773797       -0.50623277
H              0.40571757       -2.00272194       -0.61489731
H             -4.79961200        3.00969308        0.04540526
H             -4.09695627        2.63727075        2.98106938
H             -5.12262140        1.55111245        2.03689247
H             -5.63392392        3.21222379        2.33402563
H             -2.87807787        4.58107502        1.80691016
H             -3.22562337        4.90325997        0.09868401
H             -4.48279390        5.10253636        1.30992865
H             -0.99405697        2.59742658        3.16751906
