          21
 
C              3.38559318        1.59392857       -0.00545728
N              2.57709083        0.40238635        0.00010308
C              3.00356590       -0.85395994        0.00645496
N              1.96170830       -1.70085395        0.00931944
C              0.80519304       -0.96004200        0.00467881
C              1.21270702        0.38209639       -0.00115474
C              0.21910403        1.43787919       -0.00295260
O              0.46258883        2.62740485       -0.00783048
N             -1.06103490        0.91870757        0.00184406
C             -2.16959480        1.85432544        0.00755813
C             -1.42072846       -0.45559993        0.00192640
O             -2.59212457       -0.75762280       -0.00027470
N             -0.42892519       -1.38783648        0.00506899
H              4.00939231        1.63307982        0.88755995
H              4.02868556        1.61188978       -0.88547611
H              2.72346164        2.45981897       -0.02190418
H              4.03495686       -1.15261092        0.00923696
H             -1.76257481        2.86319892        0.00286492
H             -2.79407923        1.69258501       -0.87124681
H             -2.78117687        1.69591845        0.89627744
H              2.00602500       -2.71026064        0.01463273
