          24
 
C              3.24104640        1.13799788        0.00771464
N              2.28633136        0.06278868       -0.00572523
C              2.55098063       -1.24004377       -0.02284077
N              1.39412807       -1.94382836       -0.01408840
C              0.36054379       -1.05675415        0.00830115
C              0.91610761        0.21673585        0.01628025
C              0.12129276        1.40438608        0.01870144
O              0.49895692        2.55477095        0.02513626
N             -1.28755123        1.08943992       -0.00339334
C             -2.14188353        2.12045088       -0.03016348
C             -1.85524859       -0.21785118        0.00156400
O             -3.04432596       -0.37845787       -0.00428004
N             -0.96790694       -1.29056270        0.01396693
C             -1.50070620       -2.64131233        0.02459521
H              3.70277067        1.22343776        0.99283265
H              4.02029343        0.96044258       -0.73200290
H              2.72345390        2.07072761       -0.21459444
H              3.53039710       -1.67298375       -0.04416845
H             -1.72284802        3.11085974       -0.02974368
H             -3.21899807        1.93863995       -0.10075684
H             -1.17464396       -3.16996295        0.92029869
H             -1.18669768       -3.18110706       -0.86904860
H             -2.58698701       -2.56790379        0.03094925
H              1.32424458       -2.95084517       -0.02694557
