 xtb: 6.6.1 (8d0f1dd)
          06052419593D

 25 26  0     0  0            999 V2000
    3.2318    1.0860   -0.0818 C   0  0  0  0  0  0  0  0  0  0  0  0
    2.2970   -0.0034   -0.0419 N   0  0  0  0  0  0  0  0  0  0  0  0
    2.5685   -1.3037   -0.0273 C   0  0  0  0  0  0  0  0  0  0  0  0
    1.4159   -2.0181    0.0240 N   0  0  0  0  0  0  0  0  0  0  0  0
    0.3812   -1.1381    0.0454 C   0  0  0  0  0  0  0  0  0  0  0  0
    0.9284    0.1493    0.0021 C   0  0  0  0  0  0  0  0  0  0  0  0
    0.1270    1.3020   -0.0264 C   0  0  0  0  0  0  0  0  0  0  0  0
   -1.5435    3.2693   -0.5835 O   0  0  0  0  0  0  0  0  0  0  0  0
   -1.1816    1.0250    0.0323 N   0  0  0  0  0  0  0  0  0  0  0  0
   -2.1032    2.1828    0.0309 C   0  0  0  0  0  0  0  0  0  0  0  0
   -1.8032   -0.2249    0.1049 C   0  0  0  0  0  0  0  0  0  0  0  0
   -2.9926   -0.3587    0.1666 O   0  0  0  0  0  0  0  0  0  0  0  0
   -0.9437   -1.3438    0.0920 N   0  0  0  0  0  0  0  0  0  0  0  0
   -1.5230   -2.6728    0.1102 C   0  0  0  0  0  0  0  0  0  0  0  0
    3.6307    1.2844    0.9149 H   0  0  0  0  0  0  0  0  0  0  0  0
    4.0582    0.8545   -0.7523 H   0  0  0  0  0  0  0  0  0  0  0  0
    2.7073    1.9738   -0.4308 H   0  0  0  0  0  0  0  0  0  0  0  0
    3.5485   -1.7368   -0.0519 H   0  0  0  0  0  0  0  0  0  0  0  0
   -2.3617    2.3936    1.0839 H   0  0  0  0  0  0  0  0  0  0  0  0
   -0.5761    3.2230   -0.4700 H   0  0  0  0  0  0  0  0  0  0  0  0
   -3.0201    1.8986   -0.4974 H   0  0  0  0  0  0  0  0  0  0  0  0
   -1.2242   -3.2071    1.0123 H   0  0  0  0  0  0  0  0  0  0  0  0
   -1.2188   -3.2306   -0.7757 H   0  0  0  0  0  0  0  0  0  0  0  0
   -2.6064   -2.5589    0.1070 H   0  0  0  0  0  0  0  0  0  0  0  0
    1.3642   -3.0272    0.0438 H   0  0  0  0  0  0  0  0  0  0  0  0
  1  2  1  0  0  0  0
  2  3  4  0  0  0  0
  3  4  4  0  0  0  0
  4  5  4  0  0  0  0
  2  6  1  0  0  0  0
  5  6  4  0  0  0  0
  6  7  4  0  0  0  0
  7  9  4  0  0  0  0
  8 10  1  0  0  0  0
  9 10  1  0  0  0  0
  9 11  1  0  0  0  0
 11 12  2  0  0  0  0
  5 13  4  0  0  0  0
 11 13  1  0  0  0  0
 13 14  1  0  0  0  0
  1 15  1  0  0  0  0
  1 16  1  0  0  0  0
  1 17  1  0  0  0  0
  3 18  1  0  0  0  0
 10 19  1  0  0  0  0
  8 20  1  0  0  0  0
 10 21  1  0  0  0  0
 14 22  1  0  0  0  0
 14 23  1  0  0  0  0
 14 24  1  0  0  0  0
  4 25  1  0  0  0  0
M  CHG  1   1   1
M  END
