          21
 
C              1.62575921        2.00782371       -0.63408261
N              0.94389322       -0.62333604       -1.17579914
C             -0.00285568        0.11465481       -0.73730248
C              0.25836583        1.47493180       -0.45339507
C             -0.76814253        2.38150546       -0.01889160
O             -0.59918320        3.57307231        0.15857677
N             -2.03791400        1.81302165        0.20530563
C             -3.09763808        2.67887530        0.69827902
C             -2.38217929        0.52343866       -0.00866198
O             -3.47896035        0.07416794        0.19350471
N             -1.34368518       -0.35202968       -0.51630467
C             -1.70657727       -1.60037705       -0.73657890
H              2.28345597        1.63292259        0.15357666
H              2.04977608        1.65853857       -1.57454503
H              1.60850676        3.09377640       -0.58924833
H             -2.72645117        3.70123180        0.68402470
H             -3.97793407        2.58054458        0.06431144
H             -3.36739699        2.39262620        1.71521321
H             -1.00707294       -2.33017374       -1.10019629
H              0.76268566       -1.58230824       -1.43536046
H             -2.73079046       -1.86880639       -0.53710165
