 xtb: 6.6.1 (8d0f1dd)
          04062411133D

 72 72  0     0  0            999 V2000
   -1.9810    2.9102    2.2682 N   0  0  0  0  0  0  0  0  0  0  0  0
   -1.9218    2.1884    1.2512 C   0  0  0  0  0  0  0  0  0  0  0  0
   -3.0624    1.9617    0.2974 C   0  0  0  0  0  0  0  0  0  0  0  0
   -3.4963    0.5057    0.3624 C   0  0  0  0  0  0  0  0  0  0  0  0
   -4.3839    0.0037   -0.5917 C   0  0  0  0  0  0  0  0  0  0  0  0
   -4.8262   -1.3080   -0.5496 C   0  0  0  0  0  0  0  0  0  0  0  0
   -5.6837   -1.8693   -1.4264 O   0  0  0  0  0  0  0  0  0  0  0  0
   -6.2667   -1.0704   -2.4288 C   0  0  0  0  0  0  0  0  0  0  0  0
   -4.3639   -2.1699    0.4821 C   0  0  0  0  0  0  0  0  0  0  0  0
   -4.8415   -3.4291    0.4430 O   0  0  0  0  0  0  0  0  0  0  0  0
   -4.4805   -4.3312    1.4629 C   0  0  0  0  0  0  0  0  0  0  0  0
   -3.4856   -1.6639    1.4274 C   0  0  0  0  0  0  0  0  0  0  0  0
   -3.0600   -0.3430    1.3680 C   0  0  0  0  0  0  0  0  0  0  0  0
   -2.5059    2.2947   -1.1121 C   0  0  0  0  0  0  0  0  0  0  0  0
   -1.5683    1.2243   -1.6976 C   0  0  0  0  0  0  0  0  0  0  0  0
   -0.2293    1.1928   -1.0692 C   0  0  0  0  0  0  0  0  0  0  0  0
    0.4339    0.0985   -0.7239 N   0  0  0  0  0  0  0  0  0  0  0  0
    1.8394    0.1733   -0.3978 C   0  0  0  0  0  0  0  0  0  0  0  0
    2.7177   -0.0959   -1.6355 C   0  0  0  0  0  0  0  0  0  0  0  0
    4.1716   -0.0215   -1.2648 C   0  0  0  0  0  0  0  0  0  0  0  0
    4.8083    1.2085   -1.1481 C   0  0  0  0  0  0  0  0  0  0  0  0
    6.1392    1.3000   -0.7885 C   0  0  0  0  0  0  0  0  0  0  0  0
    6.8733    0.1381   -0.5331 C   0  0  0  0  0  0  0  0  0  0  0  0
    8.1733    0.1011   -0.1966 O   0  0  0  0  0  0  0  0  0  0  0  0
    8.8803    1.3081   -0.0188 C   0  0  0  0  0  0  0  0  0  0  0  0
    6.2317   -1.1028   -0.6424 C   0  0  0  0  0  0  0  0  0  0  0  0
    7.3828   -2.6603    2.7200 O   0  0  0  0  0  0  0  0  0  0  0  0
    7.0896   -3.8113    2.6056 C   0  0  0  0  0  0  0  0  0  0  0  0
    4.9040   -1.1753   -0.9989 C   0  0  0  0  0  0  0  0  0  0  0  0
   -0.1645   -1.2132   -0.7942 C   0  0  0  0  0  0  0  0  0  0  0  0
   -4.3067    2.8498    0.5971 C   0  0  0  0  0  0  0  0  0  0  0  0
   -4.9378    2.4945    1.9412 C   0  0  0  0  0  0  0  0  0  0  0  0
   -4.0060    4.3450    0.5496 C   0  0  0  0  0  0  0  0  0  0  0  0
   -4.7449    0.6545   -1.3705 H   0  0  0  0  0  0  0  0  0  0  0  0
   -6.8320   -0.2376   -1.9998 H   0  0  0  0  0  0  0  0  0  0  0  0
   -6.9470   -1.7277   -2.9665 H   0  0  0  0  0  0  0  0  0  0  0  0
   -5.5145   -0.6839   -3.1244 H   0  0  0  0  0  0  0  0  0  0  0  0
   -4.7985   -3.9729    2.4463 H   0  0  0  0  0  0  0  0  0  0  0  0
   -5.0017   -5.2577    1.2308 H   0  0  0  0  0  0  0  0  0  0  0  0
   -3.4015   -4.5154    1.4723 H   0  0  0  0  0  0  0  0  0  0  0  0
   -3.1336   -2.2882    2.2324 H   0  0  0  0  0  0  0  0  0  0  0  0
   -2.4008    0.0224    2.1401 H   0  0  0  0  0  0  0  0  0  0  0  0
   -3.3430    2.4223   -1.7974 H   0  0  0  0  0  0  0  0  0  0  0  0
   -1.9738    3.2455   -1.0631 H   0  0  0  0  0  0  0  0  0  0  0  0
   -2.0536    0.2507   -1.6604 H   0  0  0  0  0  0  0  0  0  0  0  0
   -1.4198    1.4820   -2.7547 H   0  0  0  0  0  0  0  0  0  0  0  0
   -1.0028    1.6687    0.9167 H   0  0  0  0  0  0  0  0  0  0  0  0
    0.3157    2.1240   -1.0141 H   0  0  0  0  0  0  0  0  0  0  0  0
    2.0695   -0.5607    0.3774 H   0  0  0  0  0  0  0  0  0  0  0  0
    2.0697    1.1669   -0.0073 H   0  0  0  0  0  0  0  0  0  0  0  0
    2.4859    0.6506   -2.3979 H   0  0  0  0  0  0  0  0  0  0  0  0
    2.4868   -1.0832   -2.0369 H   0  0  0  0  0  0  0  0  0  0  0  0
    4.2588    2.1158   -1.3534 H   0  0  0  0  0  0  0  0  0  0  0  0
    6.5991    2.2721   -0.7135 H   0  0  0  0  0  0  0  0  0  0  0  0
    8.4646    1.8929    0.8073 H   0  0  0  0  0  0  0  0  0  0  0  0
    8.8832    1.9109   -0.9319 H   0  0  0  0  0  0  0  0  0  0  0  0
    9.9003    1.0174    0.2248 H   0  0  0  0  0  0  0  0  0  0  0  0
    7.7637   -4.5539    2.1536 H   0  0  0  0  0  0  0  0  0  0  0  0
    6.1232   -4.2200    2.9477 H   0  0  0  0  0  0  0  0  0  0  0  0
    6.8088   -1.9893   -0.4381 H   0  0  0  0  0  0  0  0  0  0  0  0
    4.4312   -2.1424   -1.0844 H   0  0  0  0  0  0  0  0  0  0  0  0
   -0.3321   -1.5198   -1.8289 H   0  0  0  0  0  0  0  0  0  0  0  0
   -1.1206   -1.2223   -0.2659 H   0  0  0  0  0  0  0  0  0  0  0  0
    0.4982   -1.9345   -0.3230 H   0  0  0  0  0  0  0  0  0  0  0  0
   -5.0396    2.6267   -0.1870 H   0  0  0  0  0  0  0  0  0  0  0  0
   -4.2460    2.7161    2.7475 H   0  0  0  0  0  0  0  0  0  0  0  0
   -5.2064    1.4419    1.9845 H   0  0  0  0  0  0  0  0  0  0  0  0
   -5.8393    3.0837    2.0866 H   0  0  0  0  0  0  0  0  0  0  0  0
   -3.2753    4.6063    1.3085 H   0  0  0  0  0  0  0  0  0  0  0  0
   -3.6390    4.6564   -0.4245 H   0  0  0  0  0  0  0  0  0  0  0  0
   -4.9192    4.8979    0.7526 H   0  0  0  0  0  0  0  0  0  0  0  0
   -1.1403    3.0146    2.8275 H   0  0  0  0  0  0  0  0  0  0  0  0
  1  2  2  0  0  0  0
  2  3  1  0  0  0  0
  3  4  1  0  0  0  0
  4  5  4  0  0  0  0
  5  6  4  0  0  0  0
  6  7  1  0  0  0  0
  7  8  1  0  0  0  0
  6  9  4  0  0  0  0
  9 10  1  0  0  0  0
 10 11  1  0  0  0  0
  9 12  4  0  0  0  0
  4 13  4  0  0  0  0
 12 13  4  0  0  0  0
  3 14  1  0  0  0  0
 14 15  1  0  0  0  0
 15 16  1  0  0  0  0
 16 17  4  0  0  0  0
 17 18  1  0  0  0  0
 18 19  1  0  0  0  0
 19 20  1  0  0  0  0
 20 21  4  0  0  0  0
 21 22  4  0  0  0  0
 22 23  4  0  0  0  0
 23 24  1  0  0  0  0
 24 25  1  0  0  0  0
 23 26  4  0  0  0  0
 27 28  2  0  0  0  0
 20 29  4  0  0  0  0
 26 29  4  0  0  0  0
 17 30  1  0  0  0  0
  3 31  1  0  0  0  0
 31 32  1  0  0  0  0
 31 33  1  0  0  0  0
  5 34  1  0  0  0  0
  8 35  1  0  0  0  0
  8 36  1  0  0  0  0
  8 37  1  0  0  0  0
 11 38  1  0  0  0  0
 11 39  1  0  0  0  0
 11 40  1  0  0  0  0
 12 41  1  0  0  0  0
 13 42  1  0  0  0  0
 14 43  1  0  0  0  0
 14 44  1  0  0  0  0
 15 45  1  0  0  0  0
 15 46  1  0  0  0  0
  2 47  1  0  0  0  0
 16 48  1  0  0  0  0
 18 49  1  0  0  0  0
 18 50  1  0  0  0  0
 19 51  1  0  0  0  0
 19 52  1  0  0  0  0
 21 53  1  0  0  0  0
 22 54  1  0  0  0  0
 25 55  1  0  0  0  0
 25 56  1  0  0  0  0
 25 57  1  0  0  0  0
 28 58  1  0  0  0  0
 28 59  1  0  0  0  0
 26 60  1  0  0  0  0
 29 61  1  0  0  0  0
 30 62  1  0  0  0  0
 30 63  1  0  0  0  0
 30 64  1  0  0  0  0
 31 65  1  0  0  0  0
 32 66  1  0  0  0  0
 32 67  1  0  0  0  0
 32 68  1  0  0  0  0
 33 69  1  0  0  0  0
 33 70  1  0  0  0  0
 33 71  1  0  0  0  0
  1 72  1  0  0  0  0
M  CHG  1   1   1
M  END
