 xtb: 6.6.1 (8d0f1dd)
          06052419593D

 25 25  0     0  0            999 V2000
    4.0739    0.6994   -0.2490 C   0  0  0  0  0  0  0  0  0  0  0  0
    2.9517   -0.1837   -0.1039 N   0  0  0  0  0  0  0  0  0  0  0  0
    2.9667   -1.5006   -0.0557 C   0  0  0  0  0  0  0  0  0  0  0  0
    1.7311   -1.9909    0.0808 N   0  0  0  0  0  0  0  0  0  0  0  0
    0.7858   -0.9399    0.1390 C   0  0  0  0  0  0  0  0  0  0  0  0
    1.6206    0.2587    0.0016 C   0  0  0  0  0  0  0  0  0  0  0  0
    1.2072    1.5183   -0.0320 C   0  0  0  0  0  0  0  0  0  0  0  0
    0.7731    2.5888   -0.0824 O   0  0  0  0  0  0  0  0  0  0  0  0
   -3.5844    0.8858   -0.1957 N   0  0  0  0  0  0  0  0  0  0  0  0
   -3.9124    2.0979    0.4376 C   0  0  0  0  0  0  0  0  0  0  0  0
   -3.0781    0.3054   -1.0984 C   0  0  0  0  0  0  0  0  0  0  0  0
   -2.6235   -0.4296   -1.8701 O   0  0  0  0  0  0  0  0  0  0  0  0
   -0.4592   -0.9728    0.2941 N   0  0  0  0  0  0  0  0  0  0  0  0
   -1.2572   -2.1463    0.4227 C   0  0  0  0  0  0  0  0  0  0  0  0
    4.0650    1.4481    0.5450 H   0  0  0  0  0  0  0  0  0  0  0  0
    4.9992    0.1300   -0.1924 H   0  0  0  0  0  0  0  0  0  0  0  0
    4.0301    1.2149   -1.2108 H   0  0  0  0  0  0  0  0  0  0  0  0
    3.8575   -2.0991   -0.1145 H   0  0  0  0  0  0  0  0  0  0  0  0
   -3.0086    2.6620    0.6822 H   0  0  0  0  0  0  0  0  0  0  0  0
   -4.5566    2.7068   -0.2006 H   0  0  0  0  0  0  0  0  0  0  0  0
   -4.4466    1.8597    1.3578 H   0  0  0  0  0  0  0  0  0  0  0  0
   -0.7944   -2.9233    1.0381 H   0  0  0  0  0  0  0  0  0  0  0  0
   -1.4738   -2.5550   -0.5671 H   0  0  0  0  0  0  0  0  0  0  0  0
   -2.2021   -1.8464    0.8729 H   0  0  0  0  0  0  0  0  0  0  0  0
    1.4954   -2.9701    0.1319 H   0  0  0  0  0  0  0  0  0  0  0  0
  1  2  1  0  0  0  0
  2  3  4  0  0  0  0
  3  4  4  0  0  0  0
  4  5  1  0  0  0  0
  2  6  1  0  0  0  0
  5  6  1  0  0  0  0
  6  7  4  0  0  0  0
  7  8  2  0  0  0  0
  9 10  1  0  0  0  0
  9 11  2  0  0  0  0
  9 12  1  0  0  0  0
 11 12  2  0  0  0  0
  5 13  2  0  0  0  0
 13 14  1  0  0  0  0
  1 15  1  0  0  0  0
  1 16  1  0  0  0  0
  1 17  1  0  0  0  0
  3 18  1  0  0  0  0
 10 19  1  0  0  0  0
 10 20  1  0  0  0  0
 10 21  1  0  0  0  0
 14 22  1  0  0  0  0
 14 23  1  0  0  0  0
 14 24  1  0  0  0  0
  4 25  1  0  0  0  0
M  CHG  1   1   1
M  END
