           5
 
C             -2.55901094        4.10736756       -0.14244707
O             -2.02823240        3.06208253       -0.65489570
H             -1.10837868        2.79284620       -0.28235941
H             -3.52819505        4.40390591       -0.52164556
H             -2.08698805        4.70023630        0.63526721
