 xtb: 6.6.1 (8d0f1dd)
          06052420003D

 25 26  0     0  0            999 V2000
    2.6625    1.3689    0.2342 C   0  0  0  0  0  0  0  0  0  0  0  0
    1.9433    0.1318    0.1316 N   0  0  0  0  0  0  0  0  0  0  0  0
    2.4497   -1.0969    0.0972 C   0  0  0  0  0  0  0  0  0  0  0  0
    1.4479   -2.0003   -0.0307 N   0  0  0  0  0  0  0  0  0  0  0  0
    0.2700   -1.3169   -0.0796 C   0  0  0  0  0  0  0  0  0  0  0  0
    0.5811    0.0287    0.0223 C   0  0  0  0  0  0  0  0  0  0  0  0
   -0.4617    1.0169    0.0264 C   0  0  0  0  0  0  0  0  0  0  0  0
   -1.7335    0.4520   -0.1239 O   0  0  0  0  0  0  0  0  0  0  0  0
   -0.2527    2.2453    0.1560 N   0  0  0  0  0  0  0  0  0  0  0  0
   -1.2435    3.2650    0.1835 C   0  0  0  0  0  0  0  0  0  0  0  0
   -2.0531   -0.8404   -0.2451 C   0  0  0  0  0  0  0  0  0  0  0  0
   -3.1792   -1.1912   -0.3775 O   0  0  0  0  0  0  0  0  0  0  0  0
   -0.9913   -1.7813   -0.2028 N   0  0  0  0  0  0  0  0  0  0  0  0
   -1.2856   -3.1979   -0.2915 C   0  0  0  0  0  0  0  0  0  0  0  0
    2.1644    2.0152    0.9560 H   0  0  0  0  0  0  0  0  0  0  0  0
    3.6889    1.1785    0.5379 H   0  0  0  0  0  0  0  0  0  0  0  0
    2.6557    1.8838   -0.7276 H   0  0  0  0  0  0  0  0  0  0  0  0
    3.4897   -1.3454    0.1625 H   0  0  0  0  0  0  0  0  0  0  0  0
   -0.8654    4.1027   -0.4030 H   0  0  0  0  0  0  0  0  0  0  0  0
   -2.2174    2.9438   -0.1893 H   0  0  0  0  0  0  0  0  0  0  0  0
   -1.3473    3.6064    1.2155 H   0  0  0  0  0  0  0  0  0  0  0  0
   -0.9251   -3.7159    0.5979 H   0  0  0  0  0  0  0  0  0  0  0  0
   -0.8345   -3.6267   -1.1869 H   0  0  0  0  0  0  0  0  0  0  0  0
   -2.3674   -3.3059   -0.3535 H   0  0  0  0  0  0  0  0  0  0  0  0
    1.5650   -3.0021   -0.0785 H   0  0  0  0  0  0  0  0  0  0  0  0
  1  2  1  0  0  0  0
  2  3  4  0  0  0  0
  3  4  4  0  0  0  0
  4  5  1  0  0  0  0
  2  6  1  0  0  0  0
  5  6  4  0  0  0  0
  6  7  1  0  0  0  0
  7  8  1  0  0  0  0
  7  9  2  0  0  0  0
  9 10  1  0  0  0  0
  8 11  1  0  0  0  0
 11 12  2  0  0  0  0
  5 13  1  0  0  0  0
 11 13  1  0  0  0  0
 13 14  1  0  0  0  0
  1 15  1  0  0  0  0
  1 16  1  0  0  0  0
  1 17  1  0  0  0  0
  3 18  1  0  0  0  0
 10 19  1  0  0  0  0
 10 20  1  0  0  0  0
 10 21  1  0  0  0  0
 14 22  1  0  0  0  0
 14 23  1  0  0  0  0
 14 24  1  0  0  0  0
  4 25  1  0  0  0  0
M  CHG  1   1   1
M  END
