 xtb: 6.6.1 (8d0f1dd)
          06052419583D

 25 25  0     0  0            999 V2000
    2.9605    1.7397   -0.0995 C   0  0  0  0  0  0  0  0  0  0  0  0
    2.3220    0.6898    0.1817 N   0  0  0  0  0  0  0  0  0  0  0  0
    2.6994   -1.9605   -0.1720 C   0  0  0  0  0  0  0  0  0  0  0  0
    1.4163   -1.9537    0.0682 N   0  0  0  0  0  0  0  0  0  0  0  0
    0.5485   -0.8897    0.0182 C   0  0  0  0  0  0  0  0  0  0  0  0
    1.0189    0.4130    0.0490 C   0  0  0  0  0  0  0  0  0  0  0  0
    0.0467    1.5355    0.1294 C   0  0  0  0  0  0  0  0  0  0  0  0
    0.4166    2.6824    0.1921 O   0  0  0  0  0  0  0  0  0  0  0  0
   -1.2711    1.1588    0.0780 N   0  0  0  0  0  0  0  0  0  0  0  0
   -2.2900    2.2017    0.0377 C   0  0  0  0  0  0  0  0  0  0  0  0
   -1.7543   -0.1334    0.0290 C   0  0  0  0  0  0  0  0  0  0  0  0
   -2.9247   -0.3853   -0.0133 O   0  0  0  0  0  0  0  0  0  0  0  0
   -0.7906   -1.1558    0.0328 N   0  0  0  0  0  0  0  0  0  0  0  0
   -1.2870   -2.5195   -0.0051 C   0  0  0  0  0  0  0  0  0  0  0  0
    3.1927   -1.1463   -0.6629 H   0  0  0  0  0  0  0  0  0  0  0  0
    3.9561    1.8479    0.3156 H   0  0  0  0  0  0  0  0  0  0  0  0
    2.5810    2.5356   -0.7410 H   0  0  0  0  0  0  0  0  0  0  0  0
    3.2720   -2.8266    0.1194 H   0  0  0  0  0  0  0  0  0  0  0  0
   -1.8011    3.1649    0.1542 H   0  0  0  0  0  0  0  0  0  0  0  0
   -2.8186    2.1580   -0.9142 H   0  0  0  0  0  0  0  0  0  0  0  0
   -3.0082    2.0383    0.8393 H   0  0  0  0  0  0  0  0  0  0  0  0
   -1.0925   -3.0372    0.9368 H   0  0  0  0  0  0  0  0  0  0  0  0
   -0.8661   -3.0686   -0.8475 H   0  0  0  0  0  0  0  0  0  0  0  0
   -2.3684   -2.4597   -0.1349 H   0  0  0  0  0  0  0  0  0  0  0  0
    1.0023   -2.8116    0.4402 H   0  0  0  0  0  0  0  0  0  0  0  0
  1  2  2  0  0  0  0
  3  4  2  0  0  0  0
  4  5  1  0  0  0  0
  2  6  4  0  0  0  0
  5  6  4  0  0  0  0
  6  7  1  0  0  0  0
  7  8  2  0  0  0  0
  7  9  1  0  0  0  0
  9 10  1  0  0  0  0
  9 11  1  0  0  0  0
 11 12  2  0  0  0  0
  5 13  1  0  0  0  0
 11 13  1  0  0  0  0
 13 14  1  0  0  0  0
  3 15  1  0  0  0  0
  1 16  1  0  0  0  0
  1 17  1  0  0  0  0
  3 18  1  0  0  0  0
 10 19  1  0  0  0  0
 10 20  1  0  0  0  0
 10 21  1  0  0  0  0
 14 22  1  0  0  0  0
 14 23  1  0  0  0  0
 14 24  1  0  0  0  0
  4 25  1  0  0  0  0
M  CHG  1   1   1
M  END
