 xtb: 6.6.1 (8d0f1dd)
          04062411163D

 72 73  0     0  0            999 V2000
   -2.8332    2.2618    2.7649 N   0  0  0  0  0  0  0  0  0  0  0  0
   -2.3434    2.4928    1.6334 C   0  0  0  0  0  0  0  0  0  0  0  0
   -2.9173    1.9487    0.3523 C   0  0  0  0  0  0  0  0  0  0  0  0
   -3.4980    0.5436    0.4387 C   0  0  0  0  0  0  0  0  0  0  0  0
   -4.0770   -0.0043   -0.7103 C   0  0  0  0  0  0  0  0  0  0  0  0
   -4.6027   -1.2852   -0.7228 C   0  0  0  0  0  0  0  0  0  0  0  0
   -5.1910   -1.8766   -1.7839 O   0  0  0  0  0  0  0  0  0  0  0  0
   -5.3940   -1.1358   -2.9636 C   0  0  0  0  0  0  0  0  0  0  0  0
   -4.5381   -2.0802    0.4536 C   0  0  0  0  0  0  0  0  0  0  0  0
   -5.0640   -3.3168    0.3514 O   0  0  0  0  0  0  0  0  0  0  0  0
   -5.1032   -4.1404    1.4934 C   0  0  0  0  0  0  0  0  0  0  0  0
   -3.9575   -1.5342    1.5872 C   0  0  0  0  0  0  0  0  0  0  0  0
   -3.4500   -0.2417    1.5795 C   0  0  0  0  0  0  0  0  0  0  0  0
   -1.8177    1.9642   -0.7390 C   0  0  0  0  0  0  0  0  0  0  0  0
   -0.8830    0.7521   -0.7125 C   0  0  0  0  0  0  0  0  0  0  0  0
   -0.1694    0.5925    0.6377 C   0  0  0  0  0  0  0  0  0  0  0  0
    0.5953   -0.6320    0.7224 N   0  0  0  0  0  0  0  0  0  0  0  0
    2.0326   -0.5526    0.6571 C   0  0  0  0  0  0  0  0  0  0  0  0
    2.5506   -0.3107   -0.7749 C   0  0  0  0  0  0  0  0  0  0  0  0
    4.0348   -0.0820   -0.7374 C   0  0  0  0  0  0  0  0  0  0  0  0
    4.5398    1.2015   -0.6055 C   0  0  0  0  0  0  0  0  0  0  0  0
    5.9053    1.4226   -0.5243 C   0  0  0  0  0  0  0  0  0  0  0  0
    6.7954    0.3590   -0.5676 C   0  0  0  0  0  0  0  0  0  0  0  0
    8.1349    0.4555   -0.4923 O   0  0  0  0  0  0  0  0  0  0  0  0
    8.7252    1.7294   -0.3717 C   0  0  0  0  0  0  0  0  0  0  0  0
    6.2863   -0.9629   -0.7043 C   0  0  0  0  0  0  0  0  0  0  0  0
    7.2184   -1.9342   -0.7440 O   0  0  0  0  0  0  0  0  0  0  0  0
    6.8131   -3.2728   -0.9053 C   0  0  0  0  0  0  0  0  0  0  0  0
    4.9162   -1.1587   -0.7824 C   0  0  0  0  0  0  0  0  0  0  0  0
   -0.0302   -1.7902    0.8006 C   0  0  0  0  0  0  0  0  0  0  0  0
   -4.0730    2.9378   -0.0360 C   0  0  0  0  0  0  0  0  0  0  0  0
   -5.2717    2.7586    0.8903 C   0  0  0  0  0  0  0  0  0  0  0  0
   -3.6299    4.4004   -0.0367 C   0  0  0  0  0  0  0  0  0  0  0  0
   -4.1286    0.5843   -1.6109 H   0  0  0  0  0  0  0  0  0  0  0  0
   -5.9955   -0.2409   -2.7771 H   0  0  0  0  0  0  0  0  0  0  0  0
   -5.9354   -1.7993   -3.6350 H   0  0  0  0  0  0  0  0  0  0  0  0
   -4.4447   -0.8497   -3.4283 H   0  0  0  0  0  0  0  0  0  0  0  0
   -5.6756   -3.6768    2.3022 H   0  0  0  0  0  0  0  0  0  0  0  0
   -5.6006   -5.0552    1.1771 H   0  0  0  0  0  0  0  0  0  0  0  0
   -4.0964   -4.3807    1.8500 H   0  0  0  0  0  0  0  0  0  0  0  0
   -3.9046   -2.1056    2.4999 H   0  0  0  0  0  0  0  0  0  0  0  0
   -3.0498    0.1576    2.4965 H   0  0  0  0  0  0  0  0  0  0  0  0
   -2.2866    1.9985   -1.7229 H   0  0  0  0  0  0  0  0  0  0  0  0
   -1.2204    2.8719   -0.6374 H   0  0  0  0  0  0  0  0  0  0  0  0
   -1.4536   -0.1551   -0.9155 H   0  0  0  0  0  0  0  0  0  0  0  0
   -0.1498    0.8674   -1.5139 H   0  0  0  0  0  0  0  0  0  0  0  0
   -1.4979    3.1777    1.4763 H   0  0  0  0  0  0  0  0  0  0  0  0
    0.5045    1.4339    0.8058 H   0  0  0  0  0  0  0  0  0  0  0  0
    2.4620   -1.4800    1.0407 H   0  0  0  0  0  0  0  0  0  0  0  0
    2.3697    0.2691    1.2958 H   0  0  0  0  0  0  0  0  0  0  0  0
    2.0620    0.5691   -1.1933 H   0  0  0  0  0  0  0  0  0  0  0  0
    2.3055   -1.1739   -1.3951 H   0  0  0  0  0  0  0  0  0  0  0  0
    3.8685    2.0464   -0.5747 H   0  0  0  0  0  0  0  0  0  0  0  0
    6.2679    2.4328   -0.4290 H   0  0  0  0  0  0  0  0  0  0  0  0
    8.4058    2.2337    0.5453 H   0  0  0  0  0  0  0  0  0  0  0  0
    8.4946    2.3600   -1.2355 H   0  0  0  0  0  0  0  0  0  0  0  0
    9.7979    1.5515   -0.3305 H   0  0  0  0  0  0  0  0  0  0  0  0
    7.7319   -3.8554   -0.9268 H   0  0  0  0  0  0  0  0  0  0  0  0
    6.1926   -3.6079   -0.0681 H   0  0  0  0  0  0  0  0  0  0  0  0
    6.2707   -3.4170   -1.8448 H   0  0  0  0  0  0  0  0  0  0  0  0
    4.5182   -2.1553   -0.8907 H   0  0  0  0  0  0  0  0  0  0  0  0
    0.5330   -2.7021    0.8457 H   0  0  0  0  0  0  0  0  0  0  0  0
   -1.1027   -1.8121    0.8482 H   0  0  0  0  0  0  0  0  0  0  0  0
   -0.9299    0.5748    1.4215 H   0  0  0  0  0  0  0  0  0  0  0  0
   -4.3822    2.6847   -1.0546 H   0  0  0  0  0  0  0  0  0  0  0  0
   -4.9674    2.8537    1.9300 H   0  0  0  0  0  0  0  0  0  0  0  0
   -5.7248    1.7796    0.7595 H   0  0  0  0  0  0  0  0  0  0  0  0
   -6.0202    3.5171    0.6766 H   0  0  0  0  0  0  0  0  0  0  0  0
   -3.4078    4.7429    0.9708 H   0  0  0  0  0  0  0  0  0  0  0  0
   -2.7580    4.5603   -0.6656 H   0  0  0  0  0  0  0  0  0  0  0  0
   -4.4365    5.0170   -0.4263 H   0  0  0  0  0  0  0  0  0  0  0  0
   -2.4132    2.7382    3.5575 H   0  0  0  0  0  0  0  0  0  0  0  0
  1  2  2  0  0  0  0
  2  3  1  0  0  0  0
  3  4  1  0  0  0  0
  4  5  4  0  0  0  0
  5  6  4  0  0  0  0
  6  7  1  0  0  0  0
  7  8  1  0  0  0  0
  6  9  4  0  0  0  0
  9 10  1  0  0  0  0
 10 11  1  0  0  0  0
  9 12  4  0  0  0  0
  4 13  4  0  0  0  0
 12 13  4  0  0  0  0
  3 14  1  0  0  0  0
 14 15  1  0  0  0  0
 15 16  1  0  0  0  0
 16 17  1  0  0  0  0
 17 18  1  0  0  0  0
 18 19  1  0  0  0  0
 19 20  1  0  0  0  0
 20 21  4  0  0  0  0
 21 22  4  0  0  0  0
 22 23  4  0  0  0  0
 23 24  1  0  0  0  0
 24 25  1  0  0  0  0
 23 26  4  0  0  0  0
 26 27  1  0  0  0  0
 27 28  1  0  0  0  0
 20 29  4  0  0  0  0
 26 29  4  0  0  0  0
 17 30  4  0  0  0  0
  3 31  1  0  0  0  0
 31 32  1  0  0  0  0
 31 33  1  0  0  0  0
  5 34  1  0  0  0  0
  8 35  1  0  0  0  0
  8 36  1  0  0  0  0
  8 37  1  0  0  0  0
 11 38  1  0  0  0  0
 11 39  1  0  0  0  0
 11 40  1  0  0  0  0
 12 41  1  0  0  0  0
 13 42  1  0  0  0  0
 14 43  1  0  0  0  0
 14 44  1  0  0  0  0
 15 45  1  0  0  0  0
 15 46  1  0  0  0  0
  2 47  1  0  0  0  0
 16 48  1  0  0  0  0
 18 49  1  0  0  0  0
 18 50  1  0  0  0  0
 19 51  1  0  0  0  0
 19 52  1  0  0  0  0
 21 53  1  0  0  0  0
 22 54  1  0  0  0  0
 25 55  1  0  0  0  0
 25 56  1  0  0  0  0
 25 57  1  0  0  0  0
 28 58  1  0  0  0  0
 28 59  1  0  0  0  0
 28 60  1  0  0  0  0
 29 61  1  0  0  0  0
 30 62  1  0  0  0  0
 30 63  1  0  0  0  0
 16 64  1  0  0  0  0
 31 65  1  0  0  0  0
 32 66  1  0  0  0  0
 32 67  1  0  0  0  0
 32 68  1  0  0  0  0
 33 69  1  0  0  0  0
 33 70  1  0  0  0  0
 33 71  1  0  0  0  0
  1 72  1  0  0  0  0
M  CHG  1   1   1
M  END
