 xtb: 6.6.1 (8d0f1dd)
          06052419583D

 25 26  0     0  0            999 V2000
    3.2155    1.1358    0.0161 C   0  0  0  0  0  0  0  0  0  0  0  0
    2.2678    0.0523   -0.0007 N   0  0  0  0  0  0  0  0  0  0  0  0
    2.5392   -1.2396   -0.0073 C   0  0  0  0  0  0  0  0  0  0  0  0
    1.3912   -1.9511   -0.0060 N   0  0  0  0  0  0  0  0  0  0  0  0
    0.3505   -1.0677    0.0020 C   0  0  0  0  0  0  0  0  0  0  0  0
    0.9051    0.2004    0.0058 C   0  0  0  0  0  0  0  0  0  0  0  0
    0.0723    1.3971   -0.0069 C   0  0  0  0  0  0  0  0  0  0  0  0
    0.4845    2.5299   -0.0261 O   0  0  0  0  0  0  0  0  0  0  0  0
   -1.2763    1.0657    0.0014 N   0  0  0  0  0  0  0  0  0  0  0  0
   -2.2306    2.1701   -0.0041 C   0  0  0  0  0  0  0  0  0  0  0  0
   -1.8532   -0.1928    0.0078 C   0  0  0  0  0  0  0  0  0  0  0  0
   -3.0365   -0.3646    0.0144 O   0  0  0  0  0  0  0  0  0  0  0  0
   -0.9682   -1.3004    0.0046 N   0  0  0  0  0  0  0  0  0  0  0  0
   -1.5141   -2.6442    0.0009 C   0  0  0  0  0  0  0  0  0  0  0  0
    3.7137    1.1854    0.9851 H   0  0  0  0  0  0  0  0  0  0  0  0
    3.9672    0.9936   -0.7589 H   0  0  0  0  0  0  0  0  0  0  0  0
    2.6809    2.0706   -0.1522 H   0  0  0  0  0  0  0  0  0  0  0  0
    3.5223   -1.6695   -0.0138 H   0  0  0  0  0  0  0  0  0  0  0  0
   -1.6685    3.1004    0.0357 H   0  0  0  0  0  0  0  0  0  0  0  0
   -2.8344    2.1371   -0.9113 H   0  0  0  0  0  0  0  0  0  0  0  0
   -2.8936    2.0915    0.8568 H   0  0  0  0  0  0  0  0  0  0  0  0
   -1.1959   -3.1878    0.8908 H   0  0  0  0  0  0  0  0  0  0  0  0
   -1.2071   -3.1785   -0.8987 H   0  0  0  0  0  0  0  0  0  0  0  0
   -2.5998   -2.5557    0.0081 H   0  0  0  0  0  0  0  0  0  0  0  0
    1.3283   -2.9598   -0.0124 H   0  0  0  0  0  0  0  0  0  0  0  0
  1  2  1  0  0  0  0
  2  3  4  0  0  0  0
  3  4  4  0  0  0  0
  4  5  1  0  0  0  0
  2  6  1  0  0  0  0
  5  6  4  0  0  0  0
  6  7  1  0  0  0  0
  7  8  2  0  0  0  0
  7  9  1  0  0  0  0
  9 10  1  0  0  0  0
  9 11  1  0  0  0  0
 11 12  2  0  0  0  0
  5 13  4  0  0  0  0
 11 13  1  0  0  0  0
 13 14  1  0  0  0  0
  1 15  1  0  0  0  0
  1 16  1  0  0  0  0
  1 17  1  0  0  0  0
  3 18  1  0  0  0  0
 10 19  1  0  0  0  0
 10 20  1  0  0  0  0
 10 21  1  0  0  0  0
 14 22  1  0  0  0  0
 14 23  1  0  0  0  0
 14 24  1  0  0  0  0
  4 25  1  0  0  0  0
M  CHG  1   1   1
M  END
