 xtb: 6.6.1 (8d0f1dd)
          04062411143D

 72 72  0     0  0            999 V2000
   -1.8785    2.8135    2.2232 N   0  0  0  0  0  0  0  0  0  0  0  0
   -1.8503    2.1124    1.1902 C   0  0  0  0  0  0  0  0  0  0  0  0
   -3.0099    1.9158    0.2537 C   0  0  0  0  0  0  0  0  0  0  0  0
   -3.4839    0.4722    0.3278 C   0  0  0  0  0  0  0  0  0  0  0  0
   -4.4225    0.0038   -0.5940 C   0  0  0  0  0  0  0  0  0  0  0  0
   -4.8960   -1.2967   -0.5480 C   0  0  0  0  0  0  0  0  0  0  0  0
   -5.8085   -1.8241   -1.3905 O   0  0  0  0  0  0  0  0  0  0  0  0
   -6.4310   -0.9919   -2.3408 C   0  0  0  0  0  0  0  0  0  0  0  0
   -4.4089   -2.1840    0.4494 C   0  0  0  0  0  0  0  0  0  0  0  0
   -4.9152   -3.4332    0.4119 O   0  0  0  0  0  0  0  0  0  0  0  0
   -4.5482   -4.3511    1.4151 C   0  0  0  0  0  0  0  0  0  0  0  0
   -3.4803   -1.7121    1.3629 C   0  0  0  0  0  0  0  0  0  0  0  0
   -3.0272   -0.3996    1.3035 C   0  0  0  0  0  0  0  0  0  0  0  0
   -2.4664    2.2216   -1.1671 C   0  0  0  0  0  0  0  0  0  0  0  0
   -1.5517    1.1287   -1.7511 C   0  0  0  0  0  0  0  0  0  0  0  0
   -0.2179    1.0742   -1.1130 C   0  0  0  0  0  0  0  0  0  0  0  0
    0.4156   -0.0343   -0.7385 N   0  0  0  0  0  0  0  0  0  0  0  0
    1.7859    0.0244   -0.2909 C   0  0  0  0  0  0  0  0  0  0  0  0
    2.7698   -0.4490   -1.3795 C   0  0  0  0  0  0  0  0  0  0  0  0
    4.1829   -0.1801   -0.9465 C   0  0  0  0  0  0  0  0  0  0  0  0
    4.7815    1.0410   -1.2300 C   0  0  0  0  0  0  0  0  0  0  0  0
    6.0729    1.3098   -0.8209 C   0  0  0  0  0  0  0  0  0  0  0  0
    6.7896    0.3556   -0.1022 C   0  0  0  0  0  0  0  0  0  0  0  0
    8.0510    0.5142    0.3680 O   0  0  0  0  0  0  0  0  0  0  0  0
    8.8809    1.4472   -0.0020 C   0  0  0  0  0  0  0  0  0  0  0  0
    6.1865   -0.8949    0.2052 C   0  0  0  0  0  0  0  0  0  0  0  0
    6.9667   -1.7533    0.8850 O   0  0  0  0  0  0  0  0  0  0  0  0
    6.4731   -3.0368    1.1998 C   0  0  0  0  0  0  0  0  0  0  0  0
    4.8899   -1.1371   -0.2219 C   0  0  0  0  0  0  0  0  0  0  0  0
   -0.2043   -1.3352   -0.8187 C   0  0  0  0  0  0  0  0  0  0  0  0
   -4.2190    2.8453    0.5705 C   0  0  0  0  0  0  0  0  0  0  0  0
   -4.8421    2.5086    1.9232 C   0  0  0  0  0  0  0  0  0  0  0  0
   -3.8652    4.3291    0.5213 C   0  0  0  0  0  0  0  0  0  0  0  0
   -4.7995    0.6724   -1.3498 H   0  0  0  0  0  0  0  0  0  0  0  0
   -6.9439   -0.1517   -1.8631 H   0  0  0  0  0  0  0  0  0  0  0  0
   -7.1626   -1.6207   -2.8442 H   0  0  0  0  0  0  0  0  0  0  0  0
   -5.7140   -0.6140   -3.0771 H   0  0  0  0  0  0  0  0  0  0  0  0
   -4.8170   -3.9856    2.4106 H   0  0  0  0  0  0  0  0  0  0  0  0
   -5.1094   -5.2583    1.2001 H   0  0  0  0  0  0  0  0  0  0  0  0
   -3.4765   -4.5730    1.3841 H   0  0  0  0  0  0  0  0  0  0  0  0
   -3.1082   -2.3562    2.1430 H   0  0  0  0  0  0  0  0  0  0  0  0
   -2.3284   -0.0604    2.0525 H   0  0  0  0  0  0  0  0  0  0  0  0
   -3.3100    2.3518   -1.8440 H   0  0  0  0  0  0  0  0  0  0  0  0
   -1.9192    3.1647   -1.1382 H   0  0  0  0  0  0  0  0  0  0  0  0
   -2.0580    0.1662   -1.7085 H   0  0  0  0  0  0  0  0  0  0  0  0
   -1.4003    1.3802   -2.8091 H   0  0  0  0  0  0  0  0  0  0  0  0
   -0.9439    1.5904    0.8257 H   0  0  0  0  0  0  0  0  0  0  0  0
    0.3507    1.9914   -1.0705 H   0  0  0  0  0  0  0  0  0  0  0  0
    1.9002   -0.5992    0.6000 H   0  0  0  0  0  0  0  0  0  0  0  0
    2.0310    1.0535   -0.0207 H   0  0  0  0  0  0  0  0  0  0  0  0
    2.5572    0.0946   -2.3018 H   0  0  0  0  0  0  0  0  0  0  0  0
    2.6279   -1.5139   -1.5667 H   0  0  0  0  0  0  0  0  0  0  0  0
    4.2370    1.7895   -1.7851 H   0  0  0  0  0  0  0  0  0  0  0  0
    6.5122    2.2690   -1.0403 H   0  0  0  0  0  0  0  0  0  0  0  0
    9.8353    1.4729    0.5223 H   0  0  0  0  0  0  0  0  0  0  0  0
    8.6714    2.1411   -0.8022 H   0  0  0  0  0  0  0  0  0  0  0  0
   11.4799    1.8398    1.3488 H   0  0  0  0  0  0  0  0  0  0  0  0
    7.2814   -3.5340    1.7315 H   0  0  0  0  0  0  0  0  0  0  0  0
    5.5941   -2.9793    1.8482 H   0  0  0  0  0  0  0  0  0  0  0  0
    6.2303   -3.6021    0.2952 H   0  0  0  0  0  0  0  0  0  0  0  0
    4.4220   -2.0842   -0.0060 H   0  0  0  0  0  0  0  0  0  0  0  0
   -0.3640   -1.6330   -1.8571 H   0  0  0  0  0  0  0  0  0  0  0  0
   -1.1672   -1.3324   -0.3016 H   0  0  0  0  0  0  0  0  0  0  0  0
    0.4408   -2.0693   -0.3429 H   0  0  0  0  0  0  0  0  0  0  0  0
   -4.9705    2.6514   -0.2034 H   0  0  0  0  0  0  0  0  0  0  0  0
   -4.1310    2.7037    2.7192 H   0  0  0  0  0  0  0  0  0  0  0  0
   -5.1458    1.4656    1.9680 H   0  0  0  0  0  0  0  0  0  0  0  0
   -5.7206    3.1281    2.0835 H   0  0  0  0  0  0  0  0  0  0  0  0
   -3.1050    4.5603    1.2610 H   0  0  0  0  0  0  0  0  0  0  0  0
   -3.5140    4.6312   -0.4617 H   0  0  0  0  0  0  0  0  0  0  0  0
   -4.7516    4.9140    0.7519 H   0  0  0  0  0  0  0  0  0  0  0  0
   -1.0235    2.8956    2.7644 H   0  0  0  0  0  0  0  0  0  0  0  0
  1  2  2  0  0  0  0
  2  3  1  0  0  0  0
  3  4  1  0  0  0  0
  4  5  4  0  0  0  0
  5  6  4  0  0  0  0
  6  7  1  0  0  0  0
  7  8  1  0  0  0  0
  6  9  4  0  0  0  0
  9 10  1  0  0  0  0
 10 11  1  0  0  0  0
  9 12  4  0  0  0  0
  4 13  4  0  0  0  0
 12 13  4  0  0  0  0
  3 14  1  0  0  0  0
 14 15  1  0  0  0  0
 15 16  1  0  0  0  0
 16 17  4  0  0  0  0
 17 18  1  0  0  0  0
 18 19  1  0  0  0  0
 19 20  1  0  0  0  0
 20 21  4  0  0  0  0
 21 22  4  0  0  0  0
 22 23  4  0  0  0  0
 23 24  1  0  0  0  0
 24 25  4  0  0  0  0
 23 26  4  0  0  0  0
 26 27  1  0  0  0  0
 27 28  1  0  0  0  0
 20 29  4  0  0  0  0
 26 29  4  0  0  0  0
 17 30  1  0  0  0  0
  3 31  1  0  0  0  0
 31 32  1  0  0  0  0
 31 33  1  0  0  0  0
  5 34  1  0  0  0  0
  8 35  1  0  0  0  0
  8 36  1  0  0  0  0
  8 37  1  0  0  0  0
 11 38  1  0  0  0  0
 11 39  1  0  0  0  0
 11 40  1  0  0  0  0
 12 41  1  0  0  0  0
 13 42  1  0  0  0  0
 14 43  1  0  0  0  0
 14 44  1  0  0  0  0
 15 45  1  0  0  0  0
 15 46  1  0  0  0  0
  2 47  1  0  0  0  0
 16 48  1  0  0  0  0
 18 49  1  0  0  0  0
 18 50  1  0  0  0  0
 19 51  1  0  0  0  0
 19 52  1  0  0  0  0
 21 53  1  0  0  0  0
 22 54  1  0  0  0  0
 25 55  1  0  0  0  0
 25 56  1  0  0  0  0
 28 58  1  0  0  0  0
 28 59  1  0  0  0  0
 28 60  1  0  0  0  0
 29 61  1  0  0  0  0
 30 62  1  0  0  0  0
 30 63  1  0  0  0  0
 30 64  1  0  0  0  0
 31 65  1  0  0  0  0
 32 66  1  0  0  0  0
 32 67  1  0  0  0  0
 32 68  1  0  0  0  0
 33 69  1  0  0  0  0
 33 70  1  0  0  0  0
 33 71  1  0  0  0  0
  1 72  1  0  0  0  0
M  CHG  1   1   1
M  END
