 xtb: 6.6.1 (8d0f1dd)
          06052419583D

 25 25  0     0  0            999 V2000
    4.9900    0.1133   -0.2688 C   0  0  0  0  0  0  0  0  0  0  0  0
    4.0940   -0.1627    0.7790 N   0  0  0  0  0  0  0  0  0  0  0  0
    2.8752   -0.4160    0.7787 C   0  0  0  0  0  0  0  0  0  0  0  0
    2.0453   -0.4940   -0.3702 N   0  0  0  0  0  0  0  0  0  0  0  0
    0.7744   -0.6518   -0.3549 C   0  0  0  0  0  0  0  0  0  0  0  0
   -0.4714   -0.3584   -0.1296 C   0  0  0  0  0  0  0  0  0  0  0  0
   -0.9386    1.1225   -0.0075 C   0  0  0  0  0  0  0  0  0  0  0  0
   -0.2381    2.0882    0.0015 O   0  0  0  0  0  0  0  0  0  0  0  0
   -2.2824    1.0143    0.0882 N   0  0  0  0  0  0  0  0  0  0  0  0
   -3.1825    2.1401    0.2068 C   0  0  0  0  0  0  0  0  0  0  0  0
   -2.7348   -0.3109    0.0653 C   0  0  0  0  0  0  0  0  0  0  0  0
   -3.8635   -0.6826    0.1514 O   0  0  0  0  0  0  0  0  0  0  0  0
   -1.6055   -1.1107   -0.0719 N   0  0  0  0  0  0  0  0  0  0  0  0
   -1.6700   -2.5501   -0.1024 C   0  0  0  0  0  0  0  0  0  0  0  0
    5.5092    1.0398   -0.0156 H   0  0  0  0  0  0  0  0  0  0  0  0
    5.7469   -0.6760   -0.2803 H   0  0  0  0  0  0  0  0  0  0  0  0
    4.5452    0.2120   -1.2659 H   0  0  0  0  0  0  0  0  0  0  0  0
    2.3608   -0.5839    1.7152 H   0  0  0  0  0  0  0  0  0  0  0  0
   -2.5998    3.0279    0.4429 H   0  0  0  0  0  0  0  0  0  0  0  0
   -3.7188    2.2907   -0.7316 H   0  0  0  0  0  0  0  0  0  0  0  0
   -3.9060    1.9372    0.9959 H   0  0  0  0  0  0  0  0  0  0  0  0
   -1.1332   -2.9785    0.7457 H   0  0  0  0  0  0  0  0  0  0  0  0
   -1.2444   -2.9337   -1.0308 H   0  0  0  0  0  0  0  0  0  0  0  0
   -2.7222   -2.8283   -0.0429 H   0  0  0  0  0  0  0  0  0  0  0  0
    2.5307   -0.4300   -1.2671 H   0  0  0  0  0  0  0  0  0  0  0  0
  1  2  1  0  0  0  0
  2  3  2  0  0  0  0
  3  4  1  0  0  0  0
  4  5  2  0  0  0  0
  5  6  2  0  0  0  0
  6  7  1  0  0  0  0
  7  8  2  0  0  0  0
  7  9  4  0  0  0  0
  9 10  1  0  0  0  0
  9 11  1  0  0  0  0
 11 12  2  0  0  0  0
  6 13  1  0  0  0  0
 11 13  1  0  0  0  0
 13 14  1  0  0  0  0
  1 15  1  0  0  0  0
  1 16  1  0  0  0  0
  1 17  1  0  0  0  0
  3 18  1  0  0  0  0
 10 19  1  0  0  0  0
 10 20  1  0  0  0  0
 10 21  1  0  0  0  0
 14 22  1  0  0  0  0
 14 23  1  0  0  0  0
 14 24  1  0  0  0  0
  4 25  1  0  0  0  0
M  CHG  1   1   1
M  END
