 xtb: 6.6.1 (8d0f1dd)
          06052419583D

 25 25  0     0  0            999 V2000
    3.7821    0.8560    0.1080 C   0  0  0  0  0  0  0  0  0  0  0  0
    2.8176   -0.2055    0.0559 N   0  0  0  0  0  0  0  0  0  0  0  0
    3.0531   -1.4994   -0.0415 C   0  0  0  0  0  0  0  0  0  0  0  0
    1.9126   -2.1951   -0.0756 N   0  0  0  0  0  0  0  0  0  0  0  0
    0.7987   -1.3219   -0.0092 C   0  0  0  0  0  0  0  0  0  0  0  0
    1.4262    0.0018    0.0900 C   0  0  0  0  0  0  0  0  0  0  0  0
    0.8053    1.1661    0.2150 C   0  0  0  0  0  0  0  0  0  0  0  0
    0.2091    2.1523    0.3146 O   0  0  0  0  0  0  0  0  0  0  0  0
   -3.0782    1.6643    0.0153 N   0  0  0  0  0  0  0  0  0  0  0  0
   -3.6218    2.9149   -0.3317 C   0  0  0  0  0  0  0  0  0  0  0  0
   -3.2077    0.5808    0.4828 C   0  0  0  0  0  0  0  0  0  0  0  0
   -3.1268   -0.4986    0.8961 O   0  0  0  0  0  0  0  0  0  0  0  0
   -0.4308   -1.5594   -0.0336 N   0  0  0  0  0  0  0  0  0  0  0  0
   -1.0752   -2.8235   -0.1018 C   0  0  0  0  0  0  0  0  0  0  0  0
    3.6838    1.4111    1.0433 H   0  0  0  0  0  0  0  0  0  0  0  0
    4.7863    0.4421    0.0432 H   0  0  0  0  0  0  0  0  0  0  0  0
    3.6250    1.5473   -0.7225 H   0  0  0  0  0  0  0  0  0  0  0  0
    4.0351   -1.9333   -0.0918 H   0  0  0  0  0  0  0  0  0  0  0  0
   -2.7934    3.6092   -0.4757 H   0  0  0  0  0  0  0  0  0  0  0  0
   -4.1854    2.8350   -1.2642 H   0  0  0  0  0  0  0  0  0  0  0  0
   -4.2784    3.2930    0.4549 H   0  0  0  0  0  0  0  0  0  0  0  0
   -0.4980   -3.6462    0.3312 H   0  0  0  0  0  0  0  0  0  0  0  0
   -1.3020   -3.0534   -1.1456 H   0  0  0  0  0  0  0  0  0  0  0  0
   -2.0228   -2.7211    0.4273 H   0  0  0  0  0  0  0  0  0  0  0  0
    1.8461   -3.1984   -0.1531 H   0  0  0  0  0  0  0  0  0  0  0  0
  1  2  1  0  0  0  0
  2  3  4  0  0  0  0
  3  4  4  0  0  0  0
  4  5  1  0  0  0  0
  2  6  1  0  0  0  0
  5  6  1  0  0  0  0
  6  7  4  0  0  0  0
  7  8  2  0  0  0  0
  9 10  1  0  0  0  0
  9 11  2  0  0  0  0
  9 12  1  0  0  0  0
 11 12  2  0  0  0  0
  5 13  2  0  0  0  0
 13 14  1  0  0  0  0
  1 15  1  0  0  0  0
  1 16  1  0  0  0  0
  1 17  1  0  0  0  0
  3 18  1  0  0  0  0
 10 19  1  0  0  0  0
 10 20  1  0  0  0  0
 10 21  1  0  0  0  0
 14 22  1  0  0  0  0
 14 23  1  0  0  0  0
 14 24  1  0  0  0  0
  4 25  1  0  0  0  0
M  CHG  1   1   1
M  END
