 xtb: 6.6.1 (8d0f1dd)
          06052419593D

 25 26  0     0  0            999 V2000
    3.1161    0.2697   -0.3086 C   0  0  0  0  0  0  0  0  0  0  0  0
    1.6995    0.1819   -0.1154 N   0  0  0  0  0  0  0  0  0  0  0  0
    3.8875   -0.7751    0.4836 C   0  0  0  0  0  0  0  0  0  0  0  0
    1.0475   -0.9718   -0.1494 N   0  0  0  0  0  0  0  0  0  0  0  0
   -0.2440   -0.6753   -0.0591 C   0  0  0  0  0  0  0  0  0  0  0  0
   -0.4586    0.7296    0.0197 C   0  0  0  0  0  0  0  0  0  0  0  0
    0.8586    1.3316   -0.0033 C   0  0  0  0  0  0  0  0  0  0  0  0
    1.2666    2.4650    0.0565 O   0  0  0  0  0  0  0  0  0  0  0  0
   -1.7739    0.9655    0.0378 N   0  0  0  0  0  0  0  0  0  0  0  0
   -2.4670    2.2153    0.0581 C   0  0  0  0  0  0  0  0  0  0  0  0
   -2.4357   -0.2910   -0.0236 C   0  0  0  0  0  0  0  0  0  0  0  0
   -3.6185   -0.4512   -0.0375 O   0  0  0  0  0  0  0  0  0  0  0  0
   -1.4471   -1.2882   -0.0722 N   0  0  0  0  0  0  0  0  0  0  0  0
   -1.7590   -2.6880   -0.1477 C   0  0  0  0  0  0  0  0  0  0  0  0
    3.7505   -0.6278    1.5552 H   0  0  0  0  0  0  0  0  0  0  0  0
    3.3296    0.1400   -1.3820 H   0  0  0  0  0  0  0  0  0  0  0  0
    3.4085    1.2905   -0.0360 H   0  0  0  0  0  0  0  0  0  0  0  0
    4.9467   -0.6865    0.2485 H   0  0  0  0  0  0  0  0  0  0  0  0
   -1.7486    3.0277    0.1509 H   0  0  0  0  0  0  0  0  0  0  0  0
   -3.0449    2.3306   -0.8629 H   0  0  0  0  0  0  0  0  0  0  0  0
   -3.1729    2.2332    0.8913 H   0  0  0  0  0  0  0  0  0  0  0  0
   -1.3372   -3.2188    0.7073 H   0  0  0  0  0  0  0  0  0  0  0  0
   -1.3482   -3.1205   -1.0617 H   0  0  0  0  0  0  0  0  0  0  0  0
   -2.8442   -2.7891   -0.1466 H   0  0  0  0  0  0  0  0  0  0  0  0
    3.5490   -1.7789    0.2283 H   0  0  0  0  0  0  0  0  0  0  0  0
  1  2  1  0  0  0  0
  1  3  1  0  0  0  0
  2  4  4  0  0  0  0
  4  5  4  0  0  0  0
  5  6  1  0  0  0  0
  2  7  1  0  0  0  0
  6  7  1  0  0  0  0
  7  8  2  0  0  0  0
  6  9  4  0  0  0  0
  9 10  1  0  0  0  0
  9 11  1  0  0  0  0
 11 12  2  0  0  0  0
  5 13  4  0  0  0  0
 11 13  1  0  0  0  0
 13 14  1  0  0  0  0
  3 15  1  0  0  0  0
  1 16  1  0  0  0  0
  1 17  1  0  0  0  0
  3 18  1  0  0  0  0
 10 19  1  0  0  0  0
 10 20  1  0  0  0  0
 10 21  1  0  0  0  0
 14 22  1  0  0  0  0
 14 23  1  0  0  0  0
 14 24  1  0  0  0  0
  3 25  1  0  0  0  0
M  CHG  1   1   1
M  END
