 xtb: 6.6.1 (8d0f1dd)
          06052419583D

 25 25  0     0  0            999 V2000
    2.5349    1.2702   -0.3563 C   0  0  0  0  0  0  0  0  0  0  0  0
    1.7070    0.0997   -0.1010 N   0  0  0  0  0  0  0  0  0  0  0  0
    2.3184   -1.0806   -0.1946 C   0  0  0  0  0  0  0  0  0  0  0  0
    1.7415   -2.3148   -0.0908 N   0  0  0  0  0  0  0  0  0  0  0  0
    0.4664   -2.6911   -0.0813 C   0  0  0  0  0  0  0  0  0  0  0  0
    0.4107    0.3395    0.2940 C   0  0  0  0  0  0  0  0  0  0  0  0
    0.1421    1.7482    0.8976 C   0  0  0  0  0  0  0  0  0  0  0  0
    0.9580    2.0949    1.7439 O   0  0  0  0  0  0  0  0  0  0  0  0
   -0.8666    2.4425    0.4764 N   0  0  0  0  0  0  0  0  0  0  0  0
   -1.9379    2.2542   -0.3790 C   0  0  0  0  0  0  0  0  0  0  0  0
   -0.6709   -0.5580    0.4928 C   0  0  0  0  0  0  0  0  0  0  0  0
   -1.7397   -0.2197    0.9746 O   0  0  0  0  0  0  0  0  0  0  0  0
   -0.5955   -1.9514    0.0526 N   0  0  0  0  0  0  0  0  0  0  0  0
   -1.8945   -2.5980   -0.0113 C   0  0  0  0  0  0  0  0  0  0  0  0
    2.8350    1.7315    0.5890 H   0  0  0  0  0  0  0  0  0  0  0  0
    3.4221    0.9909   -0.9198 H   0  0  0  0  0  0  0  0  0  0  0  0
    1.9722    2.0100   -0.9256 H   0  0  0  0  0  0  0  0  0  0  0  0
    3.3759   -1.0726   -0.4088 H   0  0  0  0  0  0  0  0  0  0  0  0
   -2.3394    3.2440   -0.6172 H   0  0  0  0  0  0  0  0  0  0  0  0
   -1.6752    1.7481   -1.3192 H   0  0  0  0  0  0  0  0  0  0  0  0
   -2.7292    1.6785    0.1228 H   0  0  0  0  0  0  0  0  0  0  0  0
   -2.3637   -2.5894    0.9756 H   0  0  0  0  0  0  0  0  0  0  0  0
   -1.7643   -3.6208   -0.3541 H   0  0  0  0  0  0  0  0  0  0  0  0
   -2.5436   -2.0477   -0.6942 H   0  0  0  0  0  0  0  0  0  0  0  0
    2.3968   -3.0898   -0.1349 H   0  0  0  0  0  0  0  0  0  0  0  0
  1  2  1  0  0  0  0
  2  3  4  0  0  0  0
  3  4  1  0  0  0  0
  4  5  4  0  0  0  0
  2  6  1  0  0  0  0
  6  7  1  0  0  0  0
  7  8  2  0  0  0  0
  7  9  4  0  0  0  0
  9 10  1  0  0  0  0
  6 11  4  0  0  0  0
 11 12  2  0  0  0  0
  5 13  4  0  0  0  0
 11 13  1  0  0  0  0
 13 14  1  0  0  0  0
  1 15  1  0  0  0  0
  1 16  1  0  0  0  0
  1 17  1  0  0  0  0
  3 18  1  0  0  0  0
 10 19  1  0  0  0  0
 10 20  1  0  0  0  0
 10 21  1  0  0  0  0
 14 22  1  0  0  0  0
 14 23  1  0  0  0  0
 14 24  1  0  0  0  0
  4 25  1  0  0  0  0
M  CHG  1   1   1
M  END
