 xtb: 6.6.1 (8d0f1dd)
          06052419583D

 25 24  0     0  0            999 V2000
    2.6233    1.4825    0.8853 C   0  0  0  0  0  0  0  0  0  0  0  0
    1.7407    0.5786    0.7972 N   0  0  0  0  0  0  0  0  0  0  0  0
    4.1221   -2.0611   -1.1765 C   0  0  0  0  0  0  0  0  0  0  0  0
    1.1569   -2.0408    0.3580 N   0  0  0  0  0  0  0  0  0  0  0  0
   -0.4069   -0.4211    0.1652 C   0  0  0  0  0  0  0  0  0  0  0  0
    0.4716    0.6466    0.4282 C   0  0  0  0  0  0  0  0  0  0  0  0
   -0.3066    1.9055    0.3026 C   0  0  0  0  0  0  0  0  0  0  0  0
    0.1014    3.0356    0.4323 O   0  0  0  0  0  0  0  0  0  0  0  0
   -1.5940    1.5236   -0.0233 N   0  0  0  0  0  0  0  0  0  0  0  0
   -2.6769    2.4463   -0.2309 C   0  0  0  0  0  0  0  0  0  0  0  0
   -1.7325    0.1453   -0.1256 C   0  0  0  0  0  0  0  0  0  0  0  0
   -2.7673   -0.4165   -0.4153 O   0  0  0  0  0  0  0  0  0  0  0  0
   -0.0671   -1.7354    0.1646 N   0  0  0  0  0  0  0  0  0  0  0  0
   -1.0816   -2.7544   -0.0192 C   0  0  0  0  0  0  0  0  0  0  0  0
    3.5691    1.2307    1.3418 H   0  0  0  0  0  0  0  0  0  0  0  0
    4.5319   -1.1300   -1.5116 H   0  0  0  0  0  0  0  0  0  0  0  0
    2.4763    2.5022    0.5238 H   0  0  0  0  0  0  0  0  0  0  0  0
    4.5290   -3.0507   -1.2200 H   0  0  0  0  0  0  0  0  0  0  0  0
   -2.2629    3.4476   -0.3454 H   0  0  0  0  0  0  0  0  0  0  0  0
   -3.2363    2.1580   -1.1227 H   0  0  0  0  0  0  0  0  0  0  0  0
   -3.3600    2.4316    0.6228 H   0  0  0  0  0  0  0  0  0  0  0  0
   -1.2801   -3.2481    0.9360 H   0  0  0  0  0  0  0  0  0  0  0  0
   -0.7251   -3.5036   -0.7283 H   0  0  0  0  0  0  0  0  0  0  0  0
   -2.0097   -2.3152   -0.3849 H   0  0  0  0  0  0  0  0  0  0  0  0
    1.3453   -3.0390    0.3772 H   0  0  0  0  0  0  0  0  0  0  0  0
  1  2  2  0  0  0  0
  2  6  4  0  0  0  0
  5  6  4  0  0  0  0
  6  7  1  0  0  0  0
  7  8  2  0  0  0  0
  7  9  1  0  0  0  0
  9 10  1  0  0  0  0
  5 11  1  0  0  0  0
  9 11  1  0  0  0  0
 11 12  2  0  0  0  0
  4 13  4  0  0  0  0
  5 13  1  0  0  0  0
 13 14  1  0  0  0  0
  1 15  1  0  0  0  0
  3 16  1  0  0  0  0
  1 17  1  0  0  0  0
  3 18  1  0  0  0  0
 10 19  1  0  0  0  0
 10 20  1  0  0  0  0
 10 21  1  0  0  0  0
 14 22  1  0  0  0  0
 14 23  1  0  0  0  0
 14 24  1  0  0  0  0
  4 25  1  0  0  0  0
M  CHG  1   1   1
M  END
