 xtb: 6.6.1 (8d0f1dd)
          04062411163D

 72 73  0     0  0            999 V2000
   -1.8621    2.7766    2.2671 N   0  0  0  0  0  0  0  0  0  0  0  0
   -1.8406    2.0083    1.2792 C   0  0  0  0  0  0  0  0  0  0  0  0
   -2.9611    1.8795    0.2811 C   0  0  0  0  0  0  0  0  0  0  0  0
   -3.4919    0.4577    0.2896 C   0  0  0  0  0  0  0  0  0  0  0  0
   -4.3205    0.0147   -0.7425 C   0  0  0  0  0  0  0  0  0  0  0  0
   -4.8322   -1.2645   -0.7137 C   0  0  0  0  0  0  0  0  0  0  0  0
   -5.6525   -1.7663   -1.7901 O   0  0  0  0  0  0  0  0  0  0  0  0
   -6.5590   -0.8663   -2.4899 C   0  0  0  0  0  0  0  0  0  0  0  0
   -4.5759   -2.1509    0.3370 C   0  0  0  0  0  0  0  0  0  0  0  0
   -5.1841   -3.3664    0.2349 O   0  0  0  0  0  0  0  0  0  0  0  0
   -4.9849   -4.3059    1.2725 C   0  0  0  0  0  0  0  0  0  0  0  0
   -3.7548   -1.7077    1.3651 C   0  0  0  0  0  0  0  0  0  0  0  0
   -3.2246   -0.4236    1.3309 C   0  0  0  0  0  0  0  0  0  0  0  0
   -2.3430    2.2136   -1.1017 C   0  0  0  0  0  0  0  0  0  0  0  0
   -1.4029    1.1344   -1.6691 C   0  0  0  0  0  0  0  0  0  0  0  0
   -0.0833    1.0934   -0.9993 C   0  0  0  0  0  0  0  0  0  0  0  0
    0.5632   -0.0132   -0.6211 N   0  0  0  0  0  0  0  0  0  0  0  0
    1.9499    0.0532   -0.2288 C   0  0  0  0  0  0  0  0  0  0  0  0
    2.8922   -0.3830   -1.3679 C   0  0  0  0  0  0  0  0  0  0  0  0
    4.3194   -0.1498   -0.9598 C   0  0  0  0  0  0  0  0  0  0  0  0
    4.9441    1.0533   -1.2388 C   0  0  0  0  0  0  0  0  0  0  0  0
    6.2475    1.2881   -0.8278 C   0  0  0  0  0  0  0  0  0  0  0  0
    6.9495    0.3232   -0.1219 C   0  0  0  0  0  0  0  0  0  0  0  0
    8.2146    0.4446    0.3292 O   0  0  0  0  0  0  0  0  0  0  0  0
    8.9191    1.6373    0.0736 C   0  0  0  0  0  0  0  0  0  0  0  0
    6.3164   -0.9147    0.1700 C   0  0  0  0  0  0  0  0  0  0  0  0
    7.0723   -1.7987    0.8570 O   0  0  0  0  0  0  0  0  0  0  0  0
    6.5365   -3.0613    1.1691 C   0  0  0  0  0  0  0  0  0  0  0  0
    5.0140   -1.1274   -0.2504 C   0  0  0  0  0  0  0  0  0  0  0  0
   -0.0464   -1.3176   -0.6979 C   0  0  0  0  0  0  0  0  0  0  0  0
   -4.1637    2.8309    0.5622 C   0  0  0  0  0  0  0  0  0  0  0  0
   -4.8232    2.5209    1.9045 C   0  0  0  0  0  0  0  0  0  0  0  0
   -3.7844    4.3084    0.5081 C   0  0  0  0  0  0  0  0  0  0  0  0
   -4.5842    0.6561   -1.5674 H   0  0  0  0  0  0  0  0  0  0  0  0
   -7.1589   -0.2656   -1.8193 H   0  0  0  0  0  0  0  0  0  0  0  0
   -6.1708   -2.5080   -1.4179 H   0  0  0  0  0  0  0  0  0  0  0  0
   -6.0146   -0.3092   -3.2392 H   0  0  0  0  0  0  0  0  0  0  0  0
   -5.3545   -3.9254    2.2278 H   0  0  0  0  0  0  0  0  0  0  0  0
   -5.5574   -5.1849    0.9843 H   0  0  0  0  0  0  0  0  0  0  0  0
   -3.9291   -4.5728    1.3631 H   0  0  0  0  0  0  0  0  0  0  0  0
   -3.5334   -2.3467    2.2035 H   0  0  0  0  0  0  0  0  0  0  0  0
   -2.6117   -0.1012    2.1580 H   0  0  0  0  0  0  0  0  0  0  0  0
   -3.1510    2.3732   -1.8154 H   0  0  0  0  0  0  0  0  0  0  0  0
   -1.7917    3.1502   -1.0176 H   0  0  0  0  0  0  0  0  0  0  0  0
   -1.8938    0.1628   -1.6476 H   0  0  0  0  0  0  0  0  0  0  0  0
   -1.2309    1.3937   -2.7225 H   0  0  0  0  0  0  0  0  0  0  0  0
   -0.9722    1.3846    1.0038 H   0  0  0  0  0  0  0  0  0  0  0  0
    0.4652    2.0188   -0.9208 H   0  0  0  0  0  0  0  0  0  0  0  0
    2.1103   -0.5878    0.6425 H   0  0  0  0  0  0  0  0  0  0  0  0
    2.1931    1.0794    0.0536 H   0  0  0  0  0  0  0  0  0  0  0  0
    2.6588    0.2042   -2.2577 H   0  0  0  0  0  0  0  0  0  0  0  0
    2.7295   -1.4371   -1.5960 H   0  0  0  0  0  0  0  0  0  0  0  0
    4.4209    1.8186   -1.7919 H   0  0  0  0  0  0  0  0  0  0  0  0
    6.7097    2.2316   -1.0675 H   0  0  0  0  0  0  0  0  0  0  0  0
    8.4264    2.5003    0.5321 H   0  0  0  0  0  0  0  0  0  0  0  0
    9.0364    1.8114   -1.0004 H   0  0  0  0  0  0  0  0  0  0  0  0
    9.8994    1.4999    0.5257 H   0  0  0  0  0  0  0  0  0  0  0  0
    7.3252   -3.5899    1.7011 H   0  0  0  0  0  0  0  0  0  0  0  0
    5.6584   -2.9764    1.8179 H   0  0  0  0  0  0  0  0  0  0  0  0
    6.2721   -3.6205    0.2660 H   0  0  0  0  0  0  0  0  0  0  0  0
    4.5259   -2.0663   -0.0401 H   0  0  0  0  0  0  0  0  0  0  0  0
   -0.1904   -1.6321   -1.7346 H   0  0  0  0  0  0  0  0  0  0  0  0
   -1.0162   -1.3142   -0.1942 H   0  0  0  0  0  0  0  0  0  0  0  0
    0.5968   -2.0415   -0.2036 H   0  0  0  0  0  0  0  0  0  0  0  0
   -4.8997    2.6391   -0.2278 H   0  0  0  0  0  0  0  0  0  0  0  0
   -4.1306    2.7265    2.7139 H   0  0  0  0  0  0  0  0  0  0  0  0
   -5.1376    1.4813    1.9621 H   0  0  0  0  0  0  0  0  0  0  0  0
   -5.7006    3.1492    2.0316 H   0  0  0  0  0  0  0  0  0  0  0  0
   -3.0057    4.5226    1.2328 H   0  0  0  0  0  0  0  0  0  0  0  0
   -3.4487    4.6052   -0.4817 H   0  0  0  0  0  0  0  0  0  0  0  0
   -4.6559    4.9083    0.7564 H   0  0  0  0  0  0  0  0  0  0  0  0
   -1.0293    2.8059    2.8480 H   0  0  0  0  0  0  0  0  0  0  0  0
  1  2  2  0  0  0  0
  2  3  1  0  0  0  0
  3  4  1  0  0  0  0
  4  5  4  0  0  0  0
  5  6  4  0  0  0  0
  6  7  1  0  0  0  0
  7  8  1  0  0  0  0
  6  9  4  0  0  0  0
  9 10  1  0  0  0  0
 10 11  1  0  0  0  0
  9 12  4  0  0  0  0
  4 13  4  0  0  0  0
 12 13  4  0  0  0  0
  3 14  1  0  0  0  0
 14 15  1  0  0  0  0
 15 16  1  0  0  0  0
 16 17  4  0  0  0  0
 17 18  1  0  0  0  0
 18 19  1  0  0  0  0
 19 20  1  0  0  0  0
 20 21  4  0  0  0  0
 21 22  4  0  0  0  0
 22 23  4  0  0  0  0
 23 24  1  0  0  0  0
 24 25  1  0  0  0  0
 23 26  4  0  0  0  0
 26 27  1  0  0  0  0
 27 28  1  0  0  0  0
 20 29  4  0  0  0  0
 26 29  4  0  0  0  0
 17 30  1  0  0  0  0
  3 31  1  0  0  0  0
 31 32  1  0  0  0  0
 31 33  1  0  0  0  0
  5 34  1  0  0  0  0
  8 35  1  0  0  0  0
  7 36  1  0  0  0  0
  8 37  1  0  0  0  0
 11 38  1  0  0  0  0
 11 39  1  0  0  0  0
 11 40  1  0  0  0  0
 12 41  1  0  0  0  0
 13 42  1  0  0  0  0
 14 43  1  0  0  0  0
 14 44  1  0  0  0  0
 15 45  1  0  0  0  0
 15 46  1  0  0  0  0
  2 47  1  0  0  0  0
 16 48  1  0  0  0  0
 18 49  1  0  0  0  0
 18 50  1  0  0  0  0
 19 51  1  0  0  0  0
 19 52  1  0  0  0  0
 21 53  1  0  0  0  0
 22 54  1  0  0  0  0
 25 55  1  0  0  0  0
 25 56  1  0  0  0  0
 25 57  1  0  0  0  0
 28 58  1  0  0  0  0
 28 59  1  0  0  0  0
 28 60  1  0  0  0  0
 29 61  1  0  0  0  0
 30 62  1  0  0  0  0
 30 63  1  0  0  0  0
 30 64  1  0  0  0  0
 31 65  1  0  0  0  0
 32 66  1  0  0  0  0
 32 67  1  0  0  0  0
 32 68  1  0  0  0  0
 33 69  1  0  0  0  0
 33 70  1  0  0  0  0
 33 71  1  0  0  0  0
  1 72  1  0  0  0  0
M  CHG  1   1   1
M  END
