 xtb: 6.6.1 (8d0f1dd)
          06052419573D

 25 25  0     0  0            999 V2000
    2.2913   -0.1568    1.3229 C   0  0  0  0  0  0  0  0  0  0  0  0
    1.8181   -0.3804   -0.0289 N   0  0  0  0  0  0  0  0  0  0  0  0
    2.5689   -1.0889   -0.9290 C   0  0  0  0  0  0  0  0  0  0  0  0
    2.3986   -1.2459   -2.1611 N   0  0  0  0  0  0  0  0  0  0  0  0
   -0.5748    0.1688   -0.0353 C   0  0  0  0  0  0  0  0  0  0  0  0
    0.7309    0.4442   -0.4657 C   0  0  0  0  0  0  0  0  0  0  0  0
    1.0156    1.4880   -1.2687 C   0  0  0  0  0  0  0  0  0  0  0  0
    1.3296    2.3423   -1.9699 O   0  0  0  0  0  0  0  0  0  0  0  0
   -1.7734    0.8102   -0.2098 N   0  0  0  0  0  0  0  0  0  0  0  0
   -2.1954    2.1100   -0.6427 C   0  0  0  0  0  0  0  0  0  0  0  0
   -2.4007   -0.2228    0.5498 C   0  0  0  0  0  0  0  0  0  0  0  0
   -3.4970   -0.4707    0.8912 O   0  0  0  0  0  0  0  0  0  0  0  0
   -1.1221   -0.8422    0.7140 N   0  0  0  0  0  0  0  0  0  0  0  0
   -0.7507   -2.1779    1.0829 C   0  0  0  0  0  0  0  0  0  0  0  0
    2.9020   -1.0002    1.6368 H   0  0  0  0  0  0  0  0  0  0  0  0
    2.8947    0.7525    1.3875 H   0  0  0  0  0  0  0  0  0  0  0  0
    1.4451   -0.0575    2.0014 H   0  0  0  0  0  0  0  0  0  0  0  0
    3.4103   -1.6053   -0.4779 H   0  0  0  0  0  0  0  0  0  0  0  0
   -1.8049    2.3266   -1.6377 H   0  0  0  0  0  0  0  0  0  0  0  0
   -3.2836    2.1057   -0.6824 H   0  0  0  0  0  0  0  0  0  0  0  0
   -1.8682    2.8879    0.0520 H   0  0  0  0  0  0  0  0  0  0  0  0
    0.1277   -2.1718    1.7278 H   0  0  0  0  0  0  0  0  0  0  0  0
   -0.5481   -2.7932    0.2022 H   0  0  0  0  0  0  0  0  0  0  0  0
   -1.5911   -2.6044    1.6281 H   0  0  0  0  0  0  0  0  0  0  0  0
    1.6376   -0.7998   -2.6566 H   0  0  0  0  0  0  0  0  0  0  0  0
  1  2  1  0  0  0  0
  2  3  1  0  0  0  0
  3  4  2  0  0  0  0
  2  6  1  0  0  0  0
  5  6  4  0  0  0  0
  6  7  4  0  0  0  0
  7  8  2  0  0  0  0
  5  9  1  0  0  0  0
  9 10  1  0  0  0  0
  9 11  1  0  0  0  0
 11 12  2  0  0  0  0
  5 13  1  0  0  0  0
 11 13  1  0  0  0  0
 13 14  1  0  0  0  0
  1 15  1  0  0  0  0
  1 16  1  0  0  0  0
  1 17  1  0  0  0  0
  3 18  1  0  0  0  0
 10 19  1  0  0  0  0
 10 20  1  0  0  0  0
 10 21  1  0  0  0  0
 14 22  1  0  0  0  0
 14 23  1  0  0  0  0
 14 24  1  0  0  0  0
  4 25  1  0  0  0  0
M  CHG  1   1   1
M  END
