 xtb: 6.6.1 (8d0f1dd)
          04062411153D

 72 73  0     0  0            999 V2000
   -1.8836    2.7428    2.2402 N   0  0  0  0  0  0  0  0  0  0  0  0
   -1.8415    2.1138    1.1635 C   0  0  0  0  0  0  0  0  0  0  0  0
   -3.0002    1.9127    0.2281 C   0  0  0  0  0  0  0  0  0  0  0  0
   -3.4829    0.4712    0.3155 C   0  0  0  0  0  0  0  0  0  0  0  0
   -4.4443    0.0047   -0.5836 C   0  0  0  0  0  0  0  0  0  0  0  0
   -4.9177   -1.2958   -0.5272 C   0  0  0  0  0  0  0  0  0  0  0  0
   -5.8499   -1.8242   -1.3463 O   0  0  0  0  0  0  0  0  0  0  0  0
   -6.4841   -1.0011   -2.2966 C   0  0  0  0  0  0  0  0  0  0  0  0
   -4.4075   -2.1853    0.4572 C   0  0  0  0  0  0  0  0  0  0  0  0
   -4.9143   -3.4340    0.4284 O   0  0  0  0  0  0  0  0  0  0  0  0
   -4.5176   -4.3588    1.4140 C   0  0  0  0  0  0  0  0  0  0  0  0
   -3.4571   -1.7149    1.3486 C   0  0  0  0  0  0  0  0  0  0  0  0
   -3.0035   -0.4033    1.2785 C   0  0  0  0  0  0  0  0  0  0  0  0
   -2.4497    2.1940   -1.1944 C   0  0  0  0  0  0  0  0  0  0  0  0
   -1.4869    1.1164   -1.7231 C   0  0  0  0  0  0  0  0  0  0  0  0
   -0.1622    1.1139   -1.0593 C   0  0  0  0  0  0  0  0  0  0  0  0
    0.5053    0.0259   -0.6868 N   0  0  0  0  0  0  0  0  0  0  0  0
    1.8835    0.1100   -0.2634 C   0  0  0  0  0  0  0  0  0  0  0  0
    2.8566   -0.3385   -1.3716 C   0  0  0  0  0  0  0  0  0  0  0  0
    4.2773   -0.1369   -0.9207 C   0  0  0  0  0  0  0  0  0  0  0  0
    4.9208    1.0707   -1.1386 C   0  0  0  0  0  0  0  0  0  0  0  0
    6.2213    1.2725   -0.7029 C   0  0  0  0  0  0  0  0  0  0  0  0
    6.9063    0.2684   -0.0337 C   0  0  0  0  0  0  0  0  0  0  0  0
    8.1659    0.3528    0.4327 O   0  0  0  0  0  0  0  0  0  0  0  0
    8.8981    1.5393    0.2271 C   0  0  0  0  0  0  0  0  0  0  0  0
    6.2543   -0.9749    0.1958 C   0  0  0  0  0  0  0  0  0  0  0  0
    6.9931   -1.8957    0.8464 O   0  0  0  0  0  0  0  0  0  0  0  0
    6.4483   -3.1695    1.0948 C   0  0  0  0  0  0  0  0  0  0  0  0
    4.9528   -1.1523   -0.2475 C   0  0  0  0  0  0  0  0  0  0  0  0
   -0.1026   -1.2837   -0.7194 C   0  0  0  0  0  0  0  0  0  0  0  0
   -4.2005    2.8581    0.5339 C   0  0  0  0  0  0  0  0  0  0  0  0
   -4.8335    2.5361    1.8855 C   0  0  0  0  0  0  0  0  0  0  0  0
   -3.8258    4.3367    0.4796 C   0  0  0  0  0  0  0  0  0  0  0  0
   -4.8412    0.6739   -1.3289 H   0  0  0  0  0  0  0  0  0  0  0  0
   -6.9982   -0.1609   -1.8204 H   0  0  0  0  0  0  0  0  0  0  0  0
   -7.2162   -1.6373   -2.7901 H   0  0  0  0  0  0  0  0  0  0  0  0
   -5.7750   -0.6243   -3.0408 H   0  0  0  0  0  0  0  0  0  0  0  0
   -4.7567   -4.0008    2.4196 H   0  0  0  0  0  0  0  0  0  0  0  0
   -5.0850   -5.2646    1.2093 H   0  0  0  0  0  0  0  0  0  0  0  0
   -3.4474   -4.5804    1.3492 H   0  0  0  0  0  0  0  0  0  0  0  0
   -3.0669   -2.3605    2.1185 H   0  0  0  0  0  0  0  0  0  0  0  0
   -2.2852   -0.0663    2.0098 H   0  0  0  0  0  0  0  0  0  0  0  0
   -3.2870    2.2652   -1.8875 H   0  0  0  0  0  0  0  0  0  0  0  0
   -1.9412    3.1586   -1.1911 H   0  0  0  0  0  0  0  0  0  0  0  0
   -1.9642    0.1428   -1.6646 H   0  0  0  0  0  0  0  0  0  0  0  0
   -1.3149    1.3427   -2.7839 H   0  0  0  0  0  0  0  0  0  0  0  0
   -0.9148    1.6588    0.7485 H   0  0  0  0  0  0  0  0  0  0  0  0
    0.3913    2.0408   -1.0553 H   0  0  0  0  0  0  0  0  0  0  0  0
    2.0252   -0.5200    0.6193 H   0  0  0  0  0  0  0  0  0  0  0  0
    2.1151    1.1413    0.0122 H   0  0  0  0  0  0  0  0  0  0  0  0
    2.6649    0.2547   -2.2673 H   0  0  0  0  0  0  0  0  0  0  0  0
    2.6827   -1.3888   -1.6085 H   0  0  0  0  0  0  0  0  0  0  0  0
    4.4148    1.8658   -1.6648 H   0  0  0  0  0  0  0  0  0  0  0  0
    6.6972    2.2201   -0.8948 H   0  0  0  0  0  0  0  0  0  0  0  0
    8.4257    2.3927    0.7230 H   0  0  0  0  0  0  0  0  0  0  0  0
    9.0189    1.7559   -0.8385 H   0  0  0  0  0  0  0  0  0  0  0  0
    9.8752    1.3600    0.6717 H   0  0  0  0  0  0  0  0  0  0  0  0
    7.2313   -3.7274    1.6049 H   0  0  0  0  0  0  0  0  0  0  0  0
    5.5675   -3.1102    1.7423 H   0  0  0  0  0  0  0  0  0  0  0  0
    6.1864   -3.6827    0.1644 H   0  0  0  0  0  0  0  0  0  0  0  0
    4.4541   -2.0951   -0.0849 H   0  0  0  0  0  0  0  0  0  0  0  0
   -0.2493   -1.6246   -1.7466 H   0  0  0  0  0  0  0  0  0  0  0  0
   -1.0707   -1.2671   -0.2121 H   0  0  0  0  0  0  0  0  0  0  0  0
    0.5429   -1.9935   -0.2082 H   0  0  0  0  0  0  0  0  0  0  0  0
   -4.9504    2.6717   -0.2430 H   0  0  0  0  0  0  0  0  0  0  0  0
   -4.1198    2.7171    2.6826 H   0  0  0  0  0  0  0  0  0  0  0  0
   -5.1578    1.4994    1.9310 H   0  0  0  0  0  0  0  0  0  0  0  0
   -5.6993    3.1737    2.0437 H   0  0  0  0  0  0  0  0  0  0  0  0
   -3.0590    4.5613    1.2149 H   0  0  0  0  0  0  0  0  0  0  0  0
   -3.4760    4.6320   -0.5062 H   0  0  0  0  0  0  0  0  0  0  0  0
   -4.7024    4.9353    0.7127 H   0  0  0  0  0  0  0  0  0  0  0  0
   -1.0266    2.8337    2.7763 H   0  0  0  0  0  0  0  0  0  0  0  0
  1  2  2  0  0  0  0
  2  3  1  0  0  0  0
  3  4  1  0  0  0  0
  4  5  4  0  0  0  0
  5  6  4  0  0  0  0
  6  7  1  0  0  0  0
  7  8  1  0  0  0  0
  6  9  4  0  0  0  0
  9 10  1  0  0  0  0
 10 11  1  0  0  0  0
  9 12  4  0  0  0  0
  4 13  4  0  0  0  0
 12 13  4  0  0  0  0
  3 14  1  0  0  0  0
 14 15  1  0  0  0  0
 15 16  1  0  0  0  0
 16 17  4  0  0  0  0
 17 18  1  0  0  0  0
 18 19  1  0  0  0  0
 19 20  1  0  0  0  0
 20 21  4  0  0  0  0
 21 22  4  0  0  0  0
 22 23  4  0  0  0  0
 23 24  1  0  0  0  0
 24 25  1  0  0  0  0
 23 26  4  0  0  0  0
 26 27  1  0  0  0  0
 27 28  1  0  0  0  0
 20 29  4  0  0  0  0
 26 29  4  0  0  0  0
 17 30  1  0  0  0  0
  3 31  1  0  0  0  0
 31 32  1  0  0  0  0
 31 33  1  0  0  0  0
  5 34  1  0  0  0  0
  8 35  1  0  0  0  0
  8 36  1  0  0  0  0
  8 37  1  0  0  0  0
 11 38  1  0  0  0  0
 11 39  1  0  0  0  0
 11 40  1  0  0  0  0
 12 41  1  0  0  0  0
 13 42  1  0  0  0  0
 14 43  1  0  0  0  0
 14 44  1  0  0  0  0
 15 45  1  0  0  0  0
 15 46  1  0  0  0  0
  2 47  1  0  0  0  0
 16 48  1  0  0  0  0
 18 49  1  0  0  0  0
 18 50  1  0  0  0  0
 19 51  1  0  0  0  0
 19 52  1  0  0  0  0
 21 53  1  0  0  0  0
 22 54  1  0  0  0  0
 25 55  1  0  0  0  0
 25 56  1  0  0  0  0
 25 57  1  0  0  0  0
 28 58  1  0  0  0  0
 28 59  1  0  0  0  0
 28 60  1  0  0  0  0
 29 61  1  0  0  0  0
 30 62  1  0  0  0  0
 30 63  1  0  0  0  0
 30 64  1  0  0  0  0
 31 65  1  0  0  0  0
 32 66  1  0  0  0  0
 32 67  1  0  0  0  0
 32 68  1  0  0  0  0
 33 69  1  0  0  0  0
 33 70  1  0  0  0  0
 33 71  1  0  0  0  0
  1 72  1  0  0  0  0
M  CHG  1   1   1
M  END
