 xtb: 6.6.1 (8d0f1dd)
          04062411143D

 72 73  0     0  0            999 V2000
   -1.8802    2.7969    2.2343 N   0  0  0  0  0  0  0  0  0  0  0  0
   -1.8297    2.1220    1.1853 C   0  0  0  0  0  0  0  0  0  0  0  0
   -2.9793    1.9173    0.2383 C   0  0  0  0  0  0  0  0  0  0  0  0
   -3.4573    0.4748    0.3199 C   0  0  0  0  0  0  0  0  0  0  0  0
   -4.4072    0.0093   -0.5917 C   0  0  0  0  0  0  0  0  0  0  0  0
   -4.8865   -1.2888   -0.5391 C   0  0  0  0  0  0  0  0  0  0  0  0
   -5.8126   -1.8120   -1.3683 O   0  0  0  0  0  0  0  0  0  0  0  0
   -6.4446   -0.9783   -2.3111 C   0  0  0  0  0  0  0  0  0  0  0  0
   -4.3911   -2.1783    0.4527 C   0  0  0  0  0  0  0  0  0  0  0  0
   -4.9054   -3.4238    0.4225 O   0  0  0  0  0  0  0  0  0  0  0  0
   -4.5244   -4.3474    1.4153 C   0  0  0  0  0  0  0  0  0  0  0  0
   -3.4479   -1.7106    1.3534 C   0  0  0  0  0  0  0  0  0  0  0  0
   -2.9909   -0.3997    1.2890 C   0  0  0  0  0  0  0  0  0  0  0  0
   -2.4235    2.2042   -1.1810 C   0  0  0  0  0  0  0  0  0  0  0  0
   -1.4862    1.1122   -1.7279 C   0  0  0  0  0  0  0  0  0  0  0  0
   -0.1560    1.0959   -1.0791 C   0  0  0  0  0  0  0  0  0  0  0  0
    0.4958    0.0090   -0.6834 N   0  0  0  0  0  0  0  0  0  0  0  0
    1.8740    0.0952   -0.2633 C   0  0  0  0  0  0  0  0  0  0  0  0
    2.8385   -0.3862   -1.3637 C   0  0  0  0  0  0  0  0  0  0  0  0
    4.2574   -0.1692   -0.9195 C   0  0  0  0  0  0  0  0  0  0  0  0
    4.8794    1.0503   -1.1314 C   0  0  0  0  0  0  0  0  0  0  0  0
    6.1770    1.2711   -0.6979 C   0  0  0  0  0  0  0  0  0  0  0  0
    6.8790    0.2747   -0.0348 C   0  0  0  0  0  0  0  0  0  0  0  0
    8.1389    0.3765    0.4263 O   0  0  0  0  0  0  0  0  0  0  0  0
    8.8514    1.5737    0.2109 C   0  0  0  0  0  0  0  0  0  0  0  0
    6.2460   -0.9787    0.1936 C   0  0  0  0  0  0  0  0  0  0  0  0
    6.9966   -1.8915    0.8419 O   0  0  0  0  0  0  0  0  0  0  0  0
    6.4647   -3.1717    1.0863 C   0  0  0  0  0  0  0  0  0  0  0  0
    4.9475   -1.1759   -0.2494 C   0  0  0  0  0  0  0  0  0  0  0  0
   -0.1058   -1.3022   -0.7166 C   0  0  0  0  0  0  0  0  0  0  0  0
   -4.1881    2.8540    0.5349 C   0  0  0  0  0  0  0  0  0  0  0  0
   -4.8312    2.5255    1.8801 C   0  0  0  0  0  0  0  0  0  0  0  0
   -3.8249    4.3354    0.4837 C   0  0  0  0  0  0  0  0  0  0  0  0
   -4.7894    0.6780   -1.3448 H   0  0  0  0  0  0  0  0  0  0  0  0
   -6.9470   -0.1352   -1.8274 H   0  0  0  0  0  0  0  0  0  0  0  0
   -7.1861   -1.6047   -2.8031 H   0  0  0  0  0  0  0  0  0  0  0  0
   -5.7366   -0.6048   -3.0580 H   0  0  0  0  0  0  0  0  0  0  0  0
   -4.7722   -3.9844    2.4171 H   0  0  0  0  0  0  0  0  0  0  0  0
   -5.0946   -5.2507    1.2076 H   0  0  0  0  0  0  0  0  0  0  0  0
   -3.4548   -4.5748    1.3628 H   0  0  0  0  0  0  0  0  0  0  0  0
   -3.0676   -2.3571    2.1276 H   0  0  0  0  0  0  0  0  0  0  0  0
   -2.2815   -0.0638    2.0294 H   0  0  0  0  0  0  0  0  0  0  0  0
   -3.2606    2.3060   -1.8706 H   0  0  0  0  0  0  0  0  0  0  0  0
   -1.8912    3.1559   -1.1662 H   0  0  0  0  0  0  0  0  0  0  0  0
   -1.9775    0.1428   -1.6647 H   0  0  0  0  0  0  0  0  0  0  0  0
   -1.3268    1.3377   -2.7904 H   0  0  0  0  0  0  0  0  0  0  0  0
   -0.9085    1.6301    0.8140 H   0  0  0  0  0  0  0  0  0  0  0  0
    0.3993    2.0225   -1.0628 H   0  0  0  0  0  0  0  0  0  0  0  0
    2.0158   -0.5110    0.6357 H   0  0  0  0  0  0  0  0  0  0  0  0
    2.1126    1.1317   -0.0162 H   0  0  0  0  0  0  0  0  0  0  0  0
    2.6430    0.1828   -2.2744 H   0  0  0  0  0  0  0  0  0  0  0  0
    2.6632   -1.4423   -1.5712 H   0  0  0  0  0  0  0  0  0  0  0  0
    4.3581    1.8395   -1.6519 H   0  0  0  0  0  0  0  0  0  0  0  0
    6.6298    2.2331   -0.8726 H   0  0  0  0  0  0  0  0  0  0  0  0
    8.3684    2.4220    0.7055 H   0  0  0  0  0  0  0  0  0  0  0  0
    8.9609    1.7863   -0.8568 H   0  0  0  0  0  0  0  0  0  0  0  0
    9.8341    1.4127    0.6498 H   0  0  0  0  0  0  0  0  0  0  0  0
    7.2534   -3.7241    1.5932 H   0  0  0  0  0  0  0  0  0  0  0  0
    5.5840   -3.1229    1.7350 H   0  0  0  0  0  0  0  0  0  0  0  0
    6.2061   -3.6835    0.1541 H   0  0  0  0  0  0  0  0  0  0  0  0
    4.4623   -2.1258   -0.0890 H   0  0  0  0  0  0  0  0  0  0  0  0
   -0.2592   -1.6410   -1.7434 H   0  0  0  0  0  0  0  0  0  0  0  0
   -1.0696   -1.2932   -0.2016 H   0  0  0  0  0  0  0  0  0  0  0  0
    0.5492   -2.0085   -0.2129 H   0  0  0  0  0  0  0  0  0  0  0  0
   -4.9300    2.6620   -0.2484 H   0  0  0  0  0  0  0  0  0  0  0  0
   -4.1303    2.7215    2.6851 H   0  0  0  0  0  0  0  0  0  0  0  0
   -5.1381    1.4835    1.9251 H   0  0  0  0  0  0  0  0  0  0  0  0
   -5.7099    3.1482    2.0256 H   0  0  0  0  0  0  0  0  0  0  0  0
   -3.0664    4.5652    1.2256 H   0  0  0  0  0  0  0  0  0  0  0  0
   -3.4683    4.6327   -0.4990 H   0  0  0  0  0  0  0  0  0  0  0  0
   -4.7085    4.9266    0.7091 H   0  0  0  0  0  0  0  0  0  0  0  0
   -1.0321    2.8876    2.7846 H   0  0  0  0  0  0  0  0  0  0  0  0
  1  2  2  0  0  0  0
  2  3  1  0  0  0  0
  3  4  1  0  0  0  0
  4  5  4  0  0  0  0
  5  6  4  0  0  0  0
  6  7  1  0  0  0  0
  7  8  1  0  0  0  0
  6  9  4  0  0  0  0
  9 10  1  0  0  0  0
 10 11  1  0  0  0  0
  9 12  4  0  0  0  0
  4 13  4  0  0  0  0
 12 13  4  0  0  0  0
  3 14  1  0  0  0  0
 14 15  1  0  0  0  0
 15 16  1  0  0  0  0
 16 17  4  0  0  0  0
 17 18  1  0  0  0  0
 18 19  1  0  0  0  0
 19 20  1  0  0  0  0
 20 21  4  0  0  0  0
 21 22  4  0  0  0  0
 22 23  4  0  0  0  0
 23 24  1  0  0  0  0
 24 25  1  0  0  0  0
 23 26  4  0  0  0  0
 26 27  1  0  0  0  0
 27 28  1  0  0  0  0
 20 29  4  0  0  0  0
 26 29  4  0  0  0  0
 17 30  1  0  0  0  0
  3 31  1  0  0  0  0
 31 32  1  0  0  0  0
 31 33  1  0  0  0  0
  5 34  1  0  0  0  0
  8 35  1  0  0  0  0
  8 36  1  0  0  0  0
  8 37  1  0  0  0  0
 11 38  1  0  0  0  0
 11 39  1  0  0  0  0
 11 40  1  0  0  0  0
 12 41  1  0  0  0  0
 13 42  1  0  0  0  0
 14 43  1  0  0  0  0
 14 44  1  0  0  0  0
 15 45  1  0  0  0  0
 15 46  1  0  0  0  0
  2 47  1  0  0  0  0
 16 48  1  0  0  0  0
 18 49  1  0  0  0  0
 18 50  1  0  0  0  0
 19 51  1  0  0  0  0
 19 52  1  0  0  0  0
 21 53  1  0  0  0  0
 22 54  1  0  0  0  0
 25 55  1  0  0  0  0
 25 56  1  0  0  0  0
 25 57  1  0  0  0  0
 28 58  1  0  0  0  0
 28 59  1  0  0  0  0
 28 60  1  0  0  0  0
 29 61  1  0  0  0  0
 30 62  1  0  0  0  0
 30 63  1  0  0  0  0
 30 64  1  0  0  0  0
 31 65  1  0  0  0  0
 32 66  1  0  0  0  0
 32 67  1  0  0  0  0
 32 68  1  0  0  0  0
 33 69  1  0  0  0  0
 33 70  1  0  0  0  0
 33 71  1  0  0  0  0
  1 72  1  0  0  0  0
M  CHG  1   1   1
M  END
