 xtb: 6.6.1 (8d0f1dd)
          06052420003D

 25 25  0     0  0            999 V2000
    2.9519    1.2591    0.4841 C   0  0  0  0  0  0  0  0  0  0  0  0
    2.2198    0.0798    0.1111 N   0  0  0  0  0  0  0  0  0  0  0  0
    2.7705   -1.0335   -0.3194 C   0  0  0  0  0  0  0  0  0  0  0  0
    1.8351   -1.9400   -0.5873 N   0  0  0  0  0  0  0  0  0  0  0  0
    0.5548   -1.4354   -0.3164 C   0  0  0  0  0  0  0  0  0  0  0  0
    0.8181   -0.0740    0.1384 C   0  0  0  0  0  0  0  0  0  0  0  0
    0.0566    1.0327    0.5066 C   0  0  0  0  0  0  0  0  0  0  0  0
    0.3798    2.1407    0.8395 O   0  0  0  0  0  0  0  0  0  0  0  0
   -1.5095    0.8294    0.4263 N   0  0  0  0  0  0  0  0  0  0  0  0
   -2.0801    1.4176   -0.7843 C   0  0  0  0  0  0  0  0  0  0  0  0
   -2.1207    0.6427    1.4954 C   0  0  0  0  0  0  0  0  0  0  0  0
   -2.5625    0.3667    2.5183 O   0  0  0  0  0  0  0  0  0  0  0  0
   -0.4055   -2.2379   -0.5348 N   0  0  0  0  0  0  0  0  0  0  0  0
   -1.8001   -2.1360   -0.3084 C   0  0  0  0  0  0  0  0  0  0  0  0
    2.7457    1.5251    1.5207 H   0  0  0  0  0  0  0  0  0  0  0  0
    4.0161    1.0698    0.3634 H   0  0  0  0  0  0  0  0  0  0  0  0
    2.6595    2.1034   -0.1404 H   0  0  0  0  0  0  0  0  0  0  0  0
    3.8271   -1.1875   -0.4351 H   0  0  0  0  0  0  0  0  0  0  0  0
   -1.8037    2.4722   -0.8364 H   0  0  0  0  0  0  0  0  0  0  0  0
   -1.6642    0.8954   -1.6460 H   0  0  0  0  0  0  0  0  0  0  0  0
   -3.1637    1.3246   -0.7789 H   0  0  0  0  0  0  0  0  0  0  0  0
   -2.0316   -1.9313    0.7423 H   0  0  0  0  0  0  0  0  0  0  0  0
   -2.2275   -3.1053   -0.5738 H   0  0  0  0  0  0  0  0  0  0  0  0
   -2.2728   -1.3756   -0.9374 H   0  0  0  0  0  0  0  0  0  0  0  0
    1.9674   -2.8844   -0.9165 H   0  0  0  0  0  0  0  0  0  0  0  0
  1  2  1  0  0  0  0
  2  3  4  0  0  0  0
  3  4  4  0  0  0  0
  4  5  1  0  0  0  0
  2  6  1  0  0  0  0
  5  6  1  0  0  0  0
  6  7  4  0  0  0  0
  7  8  2  0  0  0  0
  7  9  1  0  0  0  0
  9 10  1  0  0  0  0
  9 11  2  0  0  0  0
 11 12  2  0  0  0  0
  5 13  2  0  0  0  0
 13 14  1  0  0  0  0
  1 15  1  0  0  0  0
  1 16  1  0  0  0  0
  1 17  1  0  0  0  0
  3 18  1  0  0  0  0
 10 19  1  0  0  0  0
 10 20  1  0  0  0  0
 10 21  1  0  0  0  0
 14 22  1  0  0  0  0
 14 23  1  0  0  0  0
 14 24  1  0  0  0  0
  4 25  1  0  0  0  0
M  CHG  1   1   1
M  END
