 xtb: 6.6.1 (8d0f1dd)
          04062411153D

 72 73  0     0  0            999 V2000
   -1.9497    2.7804    2.2844 N   0  0  0  0  0  0  0  0  0  0  0  0
   -1.8736    2.0637    1.2634 C   0  0  0  0  0  0  0  0  0  0  0  0
   -2.9985    1.8402    0.2897 C   0  0  0  0  0  0  0  0  0  0  0  0
   -3.4187    0.3774    0.3284 C   0  0  0  0  0  0  0  0  0  0  0  0
   -4.3261   -0.0945   -0.6659 C   0  0  0  0  0  0  0  0  0  0  0  0
   -4.8728   -1.3604   -0.5989 C   0  0  0  0  0  0  0  0  0  0  0  0
   -5.7738   -1.8623   -1.4738 O   0  0  0  0  0  0  0  0  0  0  0  0
   -6.3033   -1.0193   -2.4730 C   0  0  0  0  0  0  0  0  0  0  0  0
   -4.5016   -2.2418    0.4455 C   0  0  0  0  0  0  0  0  0  0  0  0
   -5.1651   -3.3814    0.5555 O   0  0  0  0  0  0  0  0  0  0  0  0
   -4.9323   -4.3179    1.4302 C   0  0  0  0  0  0  0  0  0  0  0  0
   -3.4387   -1.8685    1.4301 C   0  0  0  0  0  0  0  0  0  0  0  0
   -2.9862   -0.4532    1.3010 C   0  0  0  0  0  0  0  0  0  0  0  0
   -2.4273    2.2032   -1.1051 C   0  0  0  0  0  0  0  0  0  0  0  0
   -1.4660    1.1548   -1.6931 C   0  0  0  0  0  0  0  0  0  0  0  0
   -0.1438    1.1233   -1.0285 C   0  0  0  0  0  0  0  0  0  0  0  0
    0.5204    0.0231   -0.6806 N   0  0  0  0  0  0  0  0  0  0  0  0
    1.9012    0.0983   -0.2674 C   0  0  0  0  0  0  0  0  0  0  0  0
    2.8622   -0.3213   -1.3967 C   0  0  0  0  0  0  0  0  0  0  0  0
    4.2843   -0.1260   -0.9518 C   0  0  0  0  0  0  0  0  0  0  0  0
    4.9274    1.0828   -1.1580 C   0  0  0  0  0  0  0  0  0  0  0  0
    6.2280    1.2786   -0.7194 C   0  0  0  0  0  0  0  0  0  0  0  0
    6.9100    0.2677   -0.0587 C   0  0  0  0  0  0  0  0  0  0  0  0
    8.1707    0.3466    0.4096 O   0  0  0  0  0  0  0  0  0  0  0  0
    8.9001    1.5364    0.2162 C   0  0  0  0  0  0  0  0  0  0  0  0
    6.2572   -0.9759    0.1603 C   0  0  0  0  0  0  0  0  0  0  0  0
    6.9931   -1.9041    0.8067 O   0  0  0  0  0  0  0  0  0  0  0  0
    6.4413   -3.1766    1.0432 C   0  0  0  0  0  0  0  0  0  0  0  0
    4.9570   -1.1484   -0.2862 C   0  0  0  0  0  0  0  0  0  0  0  0
   -0.0633   -1.2905   -0.7989 C   0  0  0  0  0  0  0  0  0  0  0  0
   -4.2581    2.7058    0.5892 C   0  0  0  0  0  0  0  0  0  0  0  0
   -4.8917    2.3371    1.9289 C   0  0  0  0  0  0  0  0  0  0  0  0
   -3.9747    4.2051    0.5518 C   0  0  0  0  0  0  0  0  0  0  0  0
   -4.6250    0.5723   -1.4547 H   0  0  0  0  0  0  0  0  0  0  0  0
   -6.7891   -0.1412   -2.0377 H   0  0  0  0  0  0  0  0  0  0  0  0
   -7.0450   -1.6185   -2.9975 H   0  0  0  0  0  0  0  0  0  0  0  0
   -5.5328   -0.7005   -3.1820 H   0  0  0  0  0  0  0  0  0  0  0  0
   -3.8240   -2.0127    2.4550 H   0  0  0  0  0  0  0  0  0  0  0  0
   -5.6413   -5.1323    1.4434 H   0  0  0  0  0  0  0  0  0  0  0  0
   -4.1108   -4.2702    2.1349 H   0  0  0  0  0  0  0  0  0  0  0  0
   -2.5766   -2.5527    1.3417 H   0  0  0  0  0  0  0  0  0  0  0  0
   -2.3247   -0.1064    2.0792 H   0  0  0  0  0  0  0  0  0  0  0  0
   -3.2549    2.3322   -1.8018 H   0  0  0  0  0  0  0  0  0  0  0  0
   -1.9083    3.1595   -1.0318 H   0  0  0  0  0  0  0  0  0  0  0  0
   -1.9436    0.1767   -1.6882 H   0  0  0  0  0  0  0  0  0  0  0  0
   -1.2984    1.4363   -2.7412 H   0  0  0  0  0  0  0  0  0  0  0  0
   -0.9491    1.5496    0.9388 H   0  0  0  0  0  0  0  0  0  0  0  0
    0.3932    2.0558   -0.9428 H   0  0  0  0  0  0  0  0  0  0  0  0
    2.0540   -0.5513    0.5991 H   0  0  0  0  0  0  0  0  0  0  0  0
    2.1331    1.1229    0.0297 H   0  0  0  0  0  0  0  0  0  0  0  0
    2.6590    0.2934   -2.2752 H   0  0  0  0  0  0  0  0  0  0  0  0
    2.6884   -1.3660   -1.6573 H   0  0  0  0  0  0  0  0  0  0  0  0
    4.4210    1.8830   -1.6762 H   0  0  0  0  0  0  0  0  0  0  0  0
    6.7048    2.2275   -0.9021 H   0  0  0  0  0  0  0  0  0  0  0  0
    8.4227    2.3850    0.7159 H   0  0  0  0  0  0  0  0  0  0  0  0
    9.0251    1.7612   -0.8473 H   0  0  0  0  0  0  0  0  0  0  0  0
    9.8755    1.3568    0.6641 H   0  0  0  0  0  0  0  0  0  0  0  0
    7.2194   -3.7425    1.5518 H   0  0  0  0  0  0  0  0  0  0  0  0
    5.5581   -3.1182    1.6879 H   0  0  0  0  0  0  0  0  0  0  0  0
    6.1799   -3.6816    0.1079 H   0  0  0  0  0  0  0  0  0  0  0  0
    4.4553   -2.0910   -0.1321 H   0  0  0  0  0  0  0  0  0  0  0  0
   -0.1586   -1.5915   -1.8449 H   0  0  0  0  0  0  0  0  0  0  0  0
   -1.0526   -1.3042   -0.3379 H   0  0  0  0  0  0  0  0  0  0  0  0
    0.5711   -2.0108   -0.2877 H   0  0  0  0  0  0  0  0  0  0  0  0
   -4.9860    2.4788   -0.1984 H   0  0  0  0  0  0  0  0  0  0  0  0
   -4.2051    2.5595    2.7390 H   0  0  0  0  0  0  0  0  0  0  0  0
   -5.1536    1.2825    1.9650 H   0  0  0  0  0  0  0  0  0  0  0  0
   -5.7983    2.9188    2.0737 H   0  0  0  0  0  0  0  0  0  0  0  0
   -3.2291    4.4648    1.2966 H   0  0  0  0  0  0  0  0  0  0  0  0
   -3.6333    4.5296   -0.4274 H   0  0  0  0  0  0  0  0  0  0  0  0
   -4.8883    4.7469    0.7818 H   0  0  0  0  0  0  0  0  0  0  0  0
   -1.1134    2.8806    2.8517 H   0  0  0  0  0  0  0  0  0  0  0  0
  1  2  2  0  0  0  0
  2  3  1  0  0  0  0
  3  4  1  0  0  0  0
  4  5  4  0  0  0  0
  5  6  4  0  0  0  0
  6  7  1  0  0  0  0
  7  8  1  0  0  0  0
  6  9  4  0  0  0  0
  9 10  1  0  0  0  0
 10 11  4  0  0  0  0
  9 12  1  0  0  0  0
  4 13  2  0  0  0  0
 12 13  1  0  0  0  0
  3 14  1  0  0  0  0
 14 15  1  0  0  0  0
 15 16  1  0  0  0  0
 16 17  4  0  0  0  0
 17 18  1  0  0  0  0
 18 19  1  0  0  0  0
 19 20  1  0  0  0  0
 20 21  4  0  0  0  0
 21 22  4  0  0  0  0
 22 23  4  0  0  0  0
 23 24  1  0  0  0  0
 24 25  1  0  0  0  0
 23 26  4  0  0  0  0
 26 27  1  0  0  0  0
 27 28  1  0  0  0  0
 20 29  4  0  0  0  0
 26 29  4  0  0  0  0
 17 30  1  0  0  0  0
  3 31  1  0  0  0  0
 31 32  1  0  0  0  0
 31 33  1  0  0  0  0
  5 34  1  0  0  0  0
  8 35  1  0  0  0  0
  8 36  1  0  0  0  0
  8 37  1  0  0  0  0
 12 38  1  0  0  0  0
 11 39  1  0  0  0  0
 11 40  1  0  0  0  0
 12 41  1  0  0  0  0
 13 42  1  0  0  0  0
 14 43  1  0  0  0  0
 14 44  1  0  0  0  0
 15 45  1  0  0  0  0
 15 46  1  0  0  0  0
  2 47  1  0  0  0  0
 16 48  1  0  0  0  0
 18 49  1  0  0  0  0
 18 50  1  0  0  0  0
 19 51  1  0  0  0  0
 19 52  1  0  0  0  0
 21 53  1  0  0  0  0
 22 54  1  0  0  0  0
 25 55  1  0  0  0  0
 25 56  1  0  0  0  0
 25 57  1  0  0  0  0
 28 58  1  0  0  0  0
 28 59  1  0  0  0  0
 28 60  1  0  0  0  0
 29 61  1  0  0  0  0
 30 62  1  0  0  0  0
 30 63  1  0  0  0  0
 30 64  1  0  0  0  0
 31 65  1  0  0  0  0
 32 66  1  0  0  0  0
 32 67  1  0  0  0  0
 32 68  1  0  0  0  0
 33 69  1  0  0  0  0
 33 70  1  0  0  0  0
 33 71  1  0  0  0  0
  1 72  1  0  0  0  0
M  CHG  1   1   1
M  END
