 xtb: 6.6.1 (8d0f1dd)
          04062411113D

 72 72  0     0  0            999 V2000
   -0.0714    1.6439    1.4243 N   0  0  0  0  0  0  0  0  0  0  0  0
   -0.5544    0.7917    0.6417 C   0  0  0  0  0  0  0  0  0  0  0  0
   -3.1840    1.6913   -0.0815 C   0  0  0  0  0  0  0  0  0  0  0  0
   -3.9577    0.4661    0.1754 C   0  0  0  0  0  0  0  0  0  0  0  0
   -4.5511   -0.2640   -0.8565 C   0  0  0  0  0  0  0  0  0  0  0  0
   -5.2547   -1.4288   -0.5977 C   0  0  0  0  0  0  0  0  0  0  0  0
   -5.8563   -2.1938   -1.5300 O   0  0  0  0  0  0  0  0  0  0  0  0
   -5.8162   -1.7987   -2.8800 C   0  0  0  0  0  0  0  0  0  0  0  0
   -5.3785   -1.8953    0.7411 C   0  0  0  0  0  0  0  0  0  0  0  0
   -6.0727   -3.0369    0.8912 O   0  0  0  0  0  0  0  0  0  0  0  0
   -6.2843   -3.5534    2.1856 C   0  0  0  0  0  0  0  0  0  0  0  0
   -4.7905   -1.1587    1.7627 C   0  0  0  0  0  0  0  0  0  0  0  0
   -4.0910    0.0013    1.4839 C   0  0  0  0  0  0  0  0  0  0  0  0
   -2.5143    1.8372   -1.4492 C   0  0  0  0  0  0  0  0  0  0  0  0
   -1.5061    0.7161   -1.6922 C   0  0  0  0  0  0  0  0  0  0  0  0
   -0.2499    0.8920   -0.8355 C   0  0  0  0  0  0  0  0  0  0  0  0
    0.7908   -0.0601   -1.1920 N   0  0  0  0  0  0  0  0  0  0  0  0
    2.1027    0.2070   -0.6421 C   0  0  0  0  0  0  0  0  0  0  0  0
    3.1775    0.1355   -1.7449 C   0  0  0  0  0  0  0  0  0  0  0  0
    4.5464    0.3180   -1.1610 C   0  0  0  0  0  0  0  0  0  0  0  0
    5.1845    1.5498   -1.1932 C   0  0  0  0  0  0  0  0  0  0  0  0
    6.4439    1.7132   -0.6397 C   0  0  0  0  0  0  0  0  0  0  0  0
    7.0941    0.6474   -0.0309 C   0  0  0  0  0  0  0  0  0  0  0  0
    8.3167    0.6892    0.5279 O   0  0  0  0  0  0  0  0  0  0  0  0
    9.0522    1.8910    0.4894 C   0  0  0  0  0  0  0  0  0  0  0  0
    6.4427   -0.6181    0.0213 C   0  0  0  0  0  0  0  0  0  0  0  0
    7.1354   -1.5958    0.6353 O   0  0  0  0  0  0  0  0  0  0  0  0
    6.5751   -2.8845    0.7279 C   0  0  0  0  0  0  0  0  0  0  0  0
    5.1851   -0.7564   -0.5460 C   0  0  0  0  0  0  0  0  0  0  0  0
    0.4457   -1.4605   -1.2287 C   0  0  0  0  0  0  0  0  0  0  0  0
   -3.0484    2.6309    0.8121 C   0  0  0  0  0  0  0  0  0  0  0  0
   -5.9964    2.7442    2.2629 C   0  0  0  0  0  0  0  0  0  0  0  0
   -2.4468    3.8612    1.2454 C   0  0  0  0  0  0  0  0  0  0  0  0
   -4.4882    0.0930   -1.8710 H   0  0  0  0  0  0  0  0  0  0  0  0
   -6.2957   -0.8271   -3.0290 H   0  0  0  0  0  0  0  0  0  0  0  0
   -6.3715   -2.5606   -3.4234 H   0  0  0  0  0  0  0  0  0  0  0  0
   -4.7895   -1.7620   -3.2582 H   0  0  0  0  0  0  0  0  0  0  0  0
   -6.8442   -2.8506    2.8109 H   0  0  0  0  0  0  0  0  0  0  0  0
   -6.8715   -4.4594    2.0462 H   0  0  0  0  0  0  0  0  0  0  0  0
   -5.3392   -3.8073    2.6763 H   0  0  0  0  0  0  0  0  0  0  0  0
   -4.8732   -1.4882    2.7861 H   0  0  0  0  0  0  0  0  0  0  0  0
   -3.6350    0.5556    2.2899 H   0  0  0  0  0  0  0  0  0  0  0  0
   -3.2912    1.8130   -2.2143 H   0  0  0  0  0  0  0  0  0  0  0  0
   -2.0201    2.8072   -1.5052 H   0  0  0  0  0  0  0  0  0  0  0  0
   -1.9807   -0.2411   -1.4725 H   0  0  0  0  0  0  0  0  0  0  0  0
   -1.2042    0.7241   -2.7414 H   0  0  0  0  0  0  0  0  0  0  0  0
   -1.1292   -0.0914    0.9421 H   0  0  0  0  0  0  0  0  0  0  0  0
    0.1679    1.8887   -1.0195 H   0  0  0  0  0  0  0  0  0  0  0  0
    2.3495   -0.5153    0.1475 H   0  0  0  0  0  0  0  0  0  0  0  0
    2.1163    1.2025   -0.1954 H   0  0  0  0  0  0  0  0  0  0  0  0
    2.9721    0.9110   -2.4827 H   0  0  0  0  0  0  0  0  0  0  0  0
    3.1164   -0.8333   -2.2427 H   0  0  0  0  0  0  0  0  0  0  0  0
    4.7018    2.3922   -1.6637 H   0  0  0  0  0  0  0  0  0  0  0  0
    6.9166    2.6802   -0.6884 H   0  0  0  0  0  0  0  0  0  0  0  0
    8.5457    2.6882    1.0419 H   0  0  0  0  0  0  0  0  0  0  0  0
    9.2318    2.2161   -0.5400 H   0  0  0  0  0  0  0  0  0  0  0  0
   10.0033    1.6678    0.9690 H   0  0  0  0  0  0  0  0  0  0  0  0
    7.3116   -3.4869    1.2563 H   0  0  0  0  0  0  0  0  0  0  0  0
    5.6400   -2.8743    1.2973 H   0  0  0  0  0  0  0  0  0  0  0  0
    6.3971   -3.3162   -0.2618 H   0  0  0  0  0  0  0  0  0  0  0  0
    4.6880   -1.7137   -0.5255 H   0  0  0  0  0  0  0  0  0  0  0  0
   -0.3760   -1.6307   -1.9201 H   0  0  0  0  0  0  0  0  0  0  0  0
    0.1726   -1.8624   -0.2448 H   0  0  0  0  0  0  0  0  0  0  0  0
    1.3048   -2.0176   -1.5938 H   0  0  0  0  0  0  0  0  0  0  0  0
   -5.0341    2.6897    1.7607 H   0  0  0  0  0  0  0  0  0  0  0  0
   -5.8477    2.7955    3.3337 H   0  0  0  0  0  0  0  0  0  0  0  0
   -6.5736    1.8612    2.0210 H   0  0  0  0  0  0  0  0  0  0  0  0
   -6.5283    3.6255    1.9310 H   0  0  0  0  0  0  0  0  0  0  0  0
   -1.3597    3.7428    1.2875 H   0  0  0  0  0  0  0  0  0  0  0  0
   -2.7125    4.6848    0.5783 H   0  0  0  0  0  0  0  0  0  0  0  0
   -2.7904    4.1361    2.2455 H   0  0  0  0  0  0  0  0  0  0  0  0
   -0.2412    1.5050    2.4166 H   0  0  0  0  0  0  0  0  0  0  0  0
  1  2  2  0  0  0  0
  3  4  1  0  0  0  0
  4  5  4  0  0  0  0
  5  6  4  0  0  0  0
  6  7  1  0  0  0  0
  7  8  1  0  0  0  0
  6  9  4  0  0  0  0
  9 10  1  0  0  0  0
 10 11  1  0  0  0  0
  9 12  4  0  0  0  0
  4 13  4  0  0  0  0
 12 13  4  0  0  0  0
  3 14  1  0  0  0  0
 14 15  1  0  0  0  0
  2 16  1  0  0  0  0
 15 16  1  0  0  0  0
 16 17  1  0  0  0  0
 17 18  1  0  0  0  0
 18 19  1  0  0  0  0
 19 20  1  0  0  0  0
 20 21  4  0  0  0  0
 21 22  4  0  0  0  0
 22 23  4  0  0  0  0
 23 24  1  0  0  0  0
 24 25  1  0  0  0  0
 23 26  4  0  0  0  0
 26 27  1  0  0  0  0
 27 28  1  0  0  0  0
 20 29  4  0  0  0  0
 26 29  4  0  0  0  0
 17 30  1  0  0  0  0
  3 31  2  0  0  0  0
 31 33  1  0  0  0  0
  5 34  1  0  0  0  0
  8 35  1  0  0  0  0
  8 36  1  0  0  0  0
  8 37  1  0  0  0  0
 11 38  1  0  0  0  0
 11 39  1  0  0  0  0
 11 40  1  0  0  0  0
 12 41  1  0  0  0  0
 13 42  1  0  0  0  0
 14 43  1  0  0  0  0
 14 44  1  0  0  0  0
 15 45  1  0  0  0  0
 15 46  1  0  0  0  0
  2 47  1  0  0  0  0
 16 48  1  0  0  0  0
 18 49  1  0  0  0  0
 18 50  1  0  0  0  0
 19 51  1  0  0  0  0
 19 52  1  0  0  0  0
 21 53  1  0  0  0  0
 22 54  1  0  0  0  0
 25 55  1  0  0  0  0
 25 56  1  0  0  0  0
 25 57  1  0  0  0  0
 28 58  1  0  0  0  0
 28 59  1  0  0  0  0
 28 60  1  0  0  0  0
 29 61  1  0  0  0  0
 30 62  1  0  0  0  0
 30 63  1  0  0  0  0
 30 64  1  0  0  0  0
 32 65  1  0  0  0  0
 32 66  1  0  0  0  0
 32 67  1  0  0  0  0
 32 68  1  0  0  0  0
 33 69  1  0  0  0  0
 33 70  1  0  0  0  0
 33 71  1  0  0  0  0
  1 72  1  0  0  0  0
M  CHG  1   1   1
M  END
