 xtb: 6.6.1 (8d0f1dd)
          06052420003D

 25 24  0     0  0            999 V2000
    3.2938    1.1863   -0.0436 C   0  0  0  0  0  0  0  0  0  0  0  0
    2.3433    0.1047   -0.0058 N   0  0  0  0  0  0  0  0  0  0  0  0
    2.6664   -1.1831   -0.0233 C   0  0  0  0  0  0  0  0  0  0  0  0
    1.5615   -1.9328    0.0545 N   0  0  0  0  0  0  0  0  0  0  0  0
    0.4405   -1.0896    0.1248 C   0  0  0  0  0  0  0  0  0  0  0  0
    0.9872    0.2244    0.0831 C   0  0  0  0  0  0  0  0  0  0  0  0
    0.2274    1.4837    0.0820 C   0  0  0  0  0  0  0  0  0  0  0  0
    0.7739    2.5859   -0.0131 O   0  0  0  0  0  0  0  0  0  0  0  0
   -1.0779    1.2808    0.1748 N   0  0  0  0  0  0  0  0  0  0  0  0
   -2.0641    2.2629    0.1880 C   0  0  0  0  0  0  0  0  0  0  0  0
   -3.7978   -1.1849   -1.2115 C   0  0  0  0  0  0  0  0  0  0  0  0
   -4.1931   -0.1397   -1.0762 O   0  0  0  0  0  0  0  0  0  0  0  0
   -0.7960   -1.4069    0.2074 N   0  0  0  0  0  0  0  0  0  0  0  0
   -1.3565   -2.6962    0.2701 C   0  0  0  0  0  0  0  0  0  0  0  0
    3.8040    1.2699    0.9170 H   0  0  0  0  0  0  0  0  0  0  0  0
    4.0325    1.0092   -0.8233 H   0  0  0  0  0  0  0  0  0  0  0  0
    2.7606    2.1184   -0.2368 H   0  0  0  0  0  0  0  0  0  0  0  0
    3.6679   -1.5648   -0.0923 H   0  0  0  0  0  0  0  0  0  0  0  0
   -1.6493    3.2803    0.2013 H   0  0  0  0  0  0  0  0  0  0  0  0
   -2.7024    2.1490   -0.6961 H   0  0  0  0  0  0  0  0  0  0  0  0
   -2.7014    2.1167    1.0675 H   0  0  0  0  0  0  0  0  0  0  0  0
   -0.8374   -3.3584    0.9727 H   0  0  0  0  0  0  0  0  0  0  0  0
   -1.3627   -3.1658   -0.7203 H   0  0  0  0  0  0  0  0  0  0  0  0
   -2.3962   -2.5902    0.5834 H   0  0  0  0  0  0  0  0  0  0  0  0
    1.5362   -2.9416    0.0469 H   0  0  0  0  0  0  0  0  0  0  0  0
  1  2  1  0  0  0  0
  2  3  4  0  0  0  0
  3  4  4  0  0  0  0
  4  5  1  0  0  0  0
  2  6  4  0  0  0  0
  5  6  4  0  0  0  0
  6  7  1  0  0  0  0
  7  8  2  0  0  0  0
  7  9  4  0  0  0  0
  9 10  1  0  0  0  0
 11 12  3  0  0  0  0
  5 13  2  0  0  0  0
 13 14  1  0  0  0  0
  1 15  1  0  0  0  0
  1 16  1  0  0  0  0
  1 17  1  0  0  0  0
  3 18  1  0  0  0  0
 10 19  1  0  0  0  0
 10 20  1  0  0  0  0
 10 21  1  0  0  0  0
 14 22  1  0  0  0  0
 14 23  1  0  0  0  0
 14 24  1  0  0  0  0
  4 25  1  0  0  0  0
M  CHG  1   1   1
M  END
