 xtb: 6.6.1 (8d0f1dd)
          06052419583D

 25 25  0     0  0            999 V2000
    2.4256    1.4232    0.3932 C   0  0  0  0  0  0  0  0  0  0  0  0
    1.7588    0.1653    0.1852 N   0  0  0  0  0  0  0  0  0  0  0  0
    2.3701   -1.0236   -0.0486 C   0  0  0  0  0  0  0  0  0  0  0  0
    1.4507   -2.0226   -0.1504 N   0  0  0  0  0  0  0  0  0  0  0  0
    0.2291   -1.4532    0.0257 C   0  0  0  0  0  0  0  0  0  0  0  0
    0.4207   -0.0912    0.2347 C   0  0  0  0  0  0  0  0  0  0  0  0
   -0.1519    2.9691   -2.2763 C   0  0  0  0  0  0  0  0  0  0  0  0
    0.9716    3.1458   -2.3052 O   0  0  0  0  0  0  0  0  0  0  0  0
   -0.7915    0.4939    0.4317 N   0  0  0  0  0  0  0  0  0  0  0  0
   -1.1451    1.8808    0.5913 C   0  0  0  0  0  0  0  0  0  0  0  0
   -1.7610   -0.5173    0.3291 C   0  0  0  0  0  0  0  0  0  0  0  0
   -2.9450   -0.3768    0.4477 O   0  0  0  0  0  0  0  0  0  0  0  0
   -1.0963   -1.7311    0.0797 N   0  0  0  0  0  0  0  0  0  0  0  0
   -1.7879   -2.9764   -0.1284 C   0  0  0  0  0  0  0  0  0  0  0  0
    2.5108    1.6407    1.4602 H   0  0  0  0  0  0  0  0  0  0  0  0
    3.4249    1.3803   -0.0354 H   0  0  0  0  0  0  0  0  0  0  0  0
    1.8679    2.2253   -0.0873 H   0  0  0  0  0  0  0  0  0  0  0  0
    3.4268   -1.1541   -0.1460 H   0  0  0  0  0  0  0  0  0  0  0  0
   -0.5109    2.3573    1.3412 H   0  0  0  0  0  0  0  0  0  0  0  0
   -1.0582    2.4142   -0.3666 H   0  0  0  0  0  0  0  0  0  0  0  0
   -2.1851    1.9124    0.9148 H   0  0  0  0  0  0  0  0  0  0  0  0
   -1.4988   -3.7111    0.6234 H   0  0  0  0  0  0  0  0  0  0  0  0
   -1.5795   -3.3695   -1.1241 H   0  0  0  0  0  0  0  0  0  0  0  0
   -2.8538   -2.7698   -0.0379 H   0  0  0  0  0  0  0  0  0  0  0  0
    1.6685   -2.9932   -0.3205 H   0  0  0  0  0  0  0  0  0  0  0  0
  1  2  1  0  0  0  0
  2  3  4  0  0  0  0
  3  4  4  0  0  0  0
  4  5  1  0  0  0  0
  2  6  1  0  0  0  0
  5  6  4  0  0  0  0
  7  8  3  0  0  0  0
  6  9  1  0  0  0  0
  9 10  1  0  0  0  0
  9 11  1  0  0  0  0
 11 12  2  0  0  0  0
  5 13  1  0  0  0  0
 11 13  1  0  0  0  0
 13 14  1  0  0  0  0
  1 15  1  0  0  0  0
  1 16  1  0  0  0  0
  1 17  1  0  0  0  0
  3 18  1  0  0  0  0
 10 19  1  0  0  0  0
 10 20  1  0  0  0  0
 10 21  1  0  0  0  0
 14 22  1  0  0  0  0
 14 23  1  0  0  0  0
 14 24  1  0  0  0  0
  4 25  1  0  0  0  0
M  CHG  1   1   1
M  END
