 xtb: 6.6.1 (8d0f1dd)
          06052419593D

 25 25  0     0  0            999 V2000
    5.0256    0.0175   -0.2570 C   0  0  0  0  0  0  0  0  0  0  0  0
    4.0837   -0.0624    0.7839 N   0  0  0  0  0  0  0  0  0  0  0  0
    2.8533   -0.2462    0.7763 C   0  0  0  0  0  0  0  0  0  0  0  0
    2.0438   -0.4315   -0.3744 N   0  0  0  0  0  0  0  0  0  0  0  0
    0.7752   -0.6177   -0.3758 C   0  0  0  0  0  0  0  0  0  0  0  0
   -0.4735   -0.3387   -0.1369 C   0  0  0  0  0  0  0  0  0  0  0  0
   -0.9648    1.1301   -0.0062 C   0  0  0  0  0  0  0  0  0  0  0  0
   -0.2799    2.1077    0.0054 O   0  0  0  0  0  0  0  0  0  0  0  0
   -2.3076    1.0005    0.1026 N   0  0  0  0  0  0  0  0  0  0  0  0
   -3.2256    2.1095    0.2301 C   0  0  0  0  0  0  0  0  0  0  0  0
   -2.7370   -0.3318    0.0697 C   0  0  0  0  0  0  0  0  0  0  0  0
   -3.8606   -0.7193    0.1582 O   0  0  0  0  0  0  0  0  0  0  0  0
   -1.5961   -1.1112   -0.0783 N   0  0  0  0  0  0  0  0  0  0  0  0
   -1.6347   -2.5496   -0.1340 C   0  0  0  0  0  0  0  0  0  0  0  0
    5.4953    1.0023   -0.1978 H   0  0  0  0  0  0  0  0  0  0  0  0
    5.8088   -0.7165   -0.0463 H   0  0  0  0  0  0  0  0  0  0  0  0
    4.6410   -0.1445   -1.2733 H   0  0  0  0  0  0  0  0  0  0  0  0
    2.3102   -0.2653    1.7098 H   0  0  0  0  0  0  0  0  0  0  0  0
   -2.6837    2.9732    0.6106 H   0  0  0  0  0  0  0  0  0  0  0  0
   -3.6621    2.3531   -0.7404 H   0  0  0  0  0  0  0  0  0  0  0  0
   -4.0248    1.8257    0.9141 H   0  0  0  0  0  0  0  0  0  0  0  0
   -1.1748   -2.9857    0.7540 H   0  0  0  0  0  0  0  0  0  0  0  0
   -1.1146   -2.9082   -1.0218 H   0  0  0  0  0  0  0  0  0  0  0  0
   -2.6809   -2.8474   -0.1765 H   0  0  0  0  0  0  0  0  0  0  0  0
    2.5442   -0.4254   -1.2650 H   0  0  0  0  0  0  0  0  0  0  0  0
  1  2  1  0  0  0  0
  2  3  2  0  0  0  0
  3  4  1  0  0  0  0
  4  5  2  0  0  0  0
  5  6  2  0  0  0  0
  6  7  1  0  0  0  0
  7  8  2  0  0  0  0
  7  9  1  0  0  0  0
  9 10  1  0  0  0  0
  9 11  1  0  0  0  0
 11 12  2  0  0  0  0
  6 13  1  0  0  0  0
 11 13  1  0  0  0  0
 13 14  1  0  0  0  0
  1 15  1  0  0  0  0
  1 16  1  0  0  0  0
  1 17  1  0  0  0  0
  3 18  1  0  0  0  0
 10 19  1  0  0  0  0
 10 20  1  0  0  0  0
 10 21  1  0  0  0  0
 14 22  1  0  0  0  0
 14 23  1  0  0  0  0
 14 24  1  0  0  0  0
  4 25  1  0  0  0  0
M  CHG  1   1   1
M  END
