          24
 
C              3.21269357        1.15697835        0.01436066
N              2.26971583        0.06974387       -0.00620633
C              2.55522910       -1.22714023       -0.00922748
N              1.41733759       -1.95163419       -0.01673056
C              0.36149964       -1.07485100       -0.01755353
C              0.90300293        0.20459295       -0.01198048
C              0.07861027        1.39516434       -0.02212208
O              0.48324266        2.53492405       -0.03742306
N             -1.28046548        1.06706951       -0.01713879
C             -2.23123973        2.17564337       -0.00941941
C             -1.86035945       -0.17227247       -0.00176535
O             -3.04170722       -0.35776322        0.02110746
N             -0.96886309       -1.32714837       -0.01925955
C             -1.52803542       -2.54782847       -0.02698004
H              3.71720042        1.20045582        0.98055654
H              3.95978012        1.02400312       -0.76674606
H              2.67421119        2.09110617       -0.14400351
H              3.54284324       -1.64545400       -0.00554567
H             -1.66551087        3.10334193       -0.04087020
H             -2.88872722        2.10330437       -0.87413469
H             -2.83861226        2.13424416        0.89357896
H             -0.92117195       -3.42853924       -0.02547187
H             -2.60091785       -2.59893056       -0.01759649
H              1.36693316       -2.96063369       -0.01358546
