 xtb: 6.6.1 (8d0f1dd)
          06052419583D

 25 25  0     0  0            999 V2000
    3.4298    1.6063    0.0203 C   0  0  0  0  0  0  0  0  0  0  0  0
    2.6042    0.4285    0.0056 N   0  0  0  0  0  0  0  0  0  0  0  0
    3.0168   -0.8396    0.0024 C   0  0  0  0  0  0  0  0  0  0  0  0
    1.9570   -1.6734   -0.0002 N   0  0  0  0  0  0  0  0  0  0  0  0
    0.8143   -0.9179    0.0023 C   0  0  0  0  0  0  0  0  0  0  0  0
    1.2342    0.4204    0.0060 C   0  0  0  0  0  0  0  0  0  0  0  0
    0.2623    1.4842   -0.0032 C   0  0  0  0  0  0  0  0  0  0  0  0
    0.5157    2.6762   -0.0137 O   0  0  0  0  0  0  0  0  0  0  0  0
   -1.0328    0.9877   -0.0019 N   0  0  0  0  0  0  0  0  0  0  0  0
   -2.1239    1.9371   -0.0076 C   0  0  0  0  0  0  0  0  0  0  0  0
   -1.4035   -0.3808    0.0018 C   0  0  0  0  0  0  0  0  0  0  0  0
   -2.5855   -0.6548    0.0043 O   0  0  0  0  0  0  0  0  0  0  0  0
   -0.4327   -1.3238    0.0008 N   0  0  0  0  0  0  0  0  0  0  0  0
   -3.2257   -3.5949   -0.0087 C   0  0  0  0  0  0  0  0  0  0  0  0
    3.9662    1.6836    0.9677 H   0  0  0  0  0  0  0  0  0  0  0  0
    4.1568    1.5720   -0.7915 H   0  0  0  0  0  0  0  0  0  0  0  0
    2.7906    2.4817   -0.0968 H   0  0  0  0  0  0  0  0  0  0  0  0
    4.0439   -1.1490    0.0007 H   0  0  0  0  0  0  0  0  0  0  0  0
   -1.7051    2.9428   -0.0027 H   0  0  0  0  0  0  0  0  0  0  0  0
   -2.7425    1.7886   -0.8952 H   0  0  0  0  0  0  0  0  0  0  0  0
   -2.7546    1.7840    0.8706 H   0  0  0  0  0  0  0  0  0  0  0  0
   -3.0119   -4.1005    0.9120 H   0  0  0  0  0  0  0  0  0  0  0  0
   -3.0325   -4.0819   -0.9443 H   0  0  0  0  0  0  0  0  0  0  0  0
   -3.5690   -2.5752    0.0056 H   0  0  0  0  0  0  0  0  0  0  0  0
    1.9884   -2.6829   -0.0033 H   0  0  0  0  0  0  0  0  0  0  0  0
  1  2  1  0  0  0  0
  2  3  4  0  0  0  0
  3  4  4  0  0  0  0
  4  5  1  0  0  0  0
  2  6  1  0  0  0  0
  5  6  4  0  0  0  0
  6  7  1  0  0  0  0
  7  8  2  0  0  0  0
  7  9  1  0  0  0  0
  9 10  1  0  0  0  0
  9 11  1  0  0  0  0
 11 12  2  0  0  0  0
  5 13  4  0  0  0  0
 11 13  1  0  0  0  0
  1 15  1  0  0  0  0
  1 16  1  0  0  0  0
  1 17  1  0  0  0  0
  3 18  1  0  0  0  0
 10 19  1  0  0  0  0
 10 20  1  0  0  0  0
 10 21  1  0  0  0  0
 14 22  1  0  0  0  0
 14 23  1  0  0  0  0
 14 24  1  0  0  0  0
  4 25  1  0  0  0  0
M  CHG  1   1   1
M  END
