 xtb: 6.6.1 (8d0f1dd)
          04062411133D

 72 72  0     0  0            999 V2000
   -3.3781    3.2167    2.9900 N   0  0  0  0  0  0  0  0  0  0  0  0
   -3.2447    2.0664    2.5121 C   0  0  0  0  0  0  0  0  0  0  0  0
   -3.4484    1.7578    1.0404 C   0  0  0  0  0  0  0  0  0  0  0  0
   -4.0814    0.3945    0.8525 C   0  0  0  0  0  0  0  0  0  0  0  0
   -3.9594   -0.2473   -0.3801 C   0  0  0  0  0  0  0  0  0  0  0  0
   -4.5673   -1.4686   -0.6189 C   0  0  0  0  0  0  0  0  0  0  0  0
   -4.5086   -2.1562   -1.7792 O   0  0  0  0  0  0  0  0  0  0  0  0
   -3.8675   -1.5774   -2.8889 C   0  0  0  0  0  0  0  0  0  0  0  0
   -5.3292   -2.0850    0.4124 C   0  0  0  0  0  0  0  0  0  0  0  0
   -5.8781   -3.2732    0.0963 O   0  0  0  0  0  0  0  0  0  0  0  0
   -6.6896   -3.9285    1.0449 C   0  0  0  0  0  0  0  0  0  0  0  0
   -5.4566   -1.4309    1.6294 C   0  0  0  0  0  0  0  0  0  0  0  0
   -4.8459   -0.2040    1.8430 C   0  0  0  0  0  0  0  0  0  0  0  0
   -1.9978    1.7889    0.6632 C   0  0  0  0  0  0  0  0  0  0  0  0
   -1.1606    0.7068    0.7125 C   0  0  0  0  0  0  0  0  0  0  0  0
    0.2175    0.8325    0.5451 C   0  0  0  0  0  0  0  0  0  0  0  0
    1.1057   -0.1624    0.5886 N   0  0  0  0  0  0  0  0  0  0  0  0
    2.5151    0.0942    0.4257 C   0  0  0  0  0  0  0  0  0  0  0  0
    3.0009   -0.1647   -1.0144 C   0  0  0  0  0  0  0  0  0  0  0  0
    4.4914    0.0130   -1.0800 C   0  0  0  0  0  0  0  0  0  0  0  0
    5.0515    1.2477   -1.3683 C   0  0  0  0  0  0  0  0  0  0  0  0
    6.4270    1.4195   -1.3778 C   0  0  0  0  0  0  0  0  0  0  0  0
    7.2743    0.3575   -1.0930 C   0  0  0  0  0  0  0  0  0  0  0  0
    8.6175    0.4079   -1.0643 O   0  0  0  0  0  0  0  0  0  0  0  0
    9.2701    1.6246   -1.3453 C   0  0  0  0  0  0  0  0  0  0  0  0
    6.7093   -0.9161   -0.8020 C   0  0  0  0  0  0  0  0  0  0  0  0
    7.6007   -1.8932   -0.5483 O   0  0  0  0  0  0  0  0  0  0  0  0
    7.1407   -3.1973   -0.2847 C   0  0  0  0  0  0  0  0  0  0  0  0
    5.3308   -1.0617   -0.7957 C   0  0  0  0  0  0  0  0  0  0  0  0
    0.6832   -1.5354    0.7217 C   0  0  0  0  0  0  0  0  0  0  0  0
   -4.3157    2.8026    0.2781 C   0  0  0  0  0  0  0  0  0  0  0  0
   -5.6983    2.9120    0.9167 C   0  0  0  0  0  0  0  0  0  0  0  0
   -3.6877    4.1902    0.1776 C   0  0  0  0  0  0  0  0  0  0  0  0
   -3.3848    0.2270   -1.1597 H   0  0  0  0  0  0  0  0  0  0  0  0
   -4.3318   -0.6271   -3.1677 H   0  0  0  0  0  0  0  0  0  0  0  0
   -3.9888   -2.2921   -3.7003 H   0  0  0  0  0  0  0  0  0  0  0  0
   -2.8014   -1.4188   -2.7014 H   0  0  0  0  0  0  0  0  0  0  0  0
   -7.5585   -3.3212    1.3177 H   0  0  0  0  0  0  0  0  0  0  0  0
   -7.0271   -4.8423    0.5592 H   0  0  0  0  0  0  0  0  0  0  0  0
   -6.1237   -4.1845    1.9473 H   0  0  0  0  0  0  0  0  0  0  0  0
   -6.0444   -1.8647    2.4215 H   0  0  0  0  0  0  0  0  0  0  0  0
   -4.9908    0.2877    2.7923 H   0  0  0  0  0  0  0  0  0  0  0  0
   -1.8683    1.9557   -2.0160 H   0  0  0  0  0  0  0  0  0  0  0  0
   -1.5745    2.7666    0.4934 H   0  0  0  0  0  0  0  0  0  0  0  0
   -1.5848   -0.2696    0.8949 H   0  0  0  0  0  0  0  0  0  0  0  0
   -1.9139    2.0259   -2.7948 H   0  0  0  0  0  0  0  0  0  0  0  0
   -2.8872    1.1956    3.0801 H   0  0  0  0  0  0  0  0  0  0  0  0
    0.6274    1.8212    0.3927 H   0  0  0  0  0  0  0  0  0  0  0  0
    3.0715   -0.5501    1.1125 H   0  0  0  0  0  0  0  0  0  0  0  0
    2.7265    1.1318    0.6906 H   0  0  0  0  0  0  0  0  0  0  0  0
    2.5056    0.5361   -1.6881 H   0  0  0  0  0  0  0  0  0  0  0  0
    2.7316   -1.1791   -1.3117 H   0  0  0  0  0  0  0  0  0  0  0  0
    4.4151    2.0889   -1.5965 H   0  0  0  0  0  0  0  0  0  0  0  0
    6.8328    2.3901   -1.6112 H   0  0  0  0  0  0  0  0  0  0  0  0
    8.9885    2.4053   -0.6324 H   0  0  0  0  0  0  0  0  0  0  0  0
    9.0587    1.9650   -2.3627 H   0  0  0  0  0  0  0  0  0  0  0  0
   10.3331    1.4143   -1.2482 H   0  0  0  0  0  0  0  0  0  0  0  0
    8.0356   -3.8000   -0.1424 H   0  0  0  0  0  0  0  0  0  0  0  0
    6.5337   -3.2320    0.6258 H   0  0  0  0  0  0  0  0  0  0  0  0
    6.5647   -3.5967   -1.1252 H   0  0  0  0  0  0  0  0  0  0  0  0
    4.8932   -2.0237   -0.5789 H   0  0  0  0  0  0  0  0  0  0  0  0
    0.0512   -1.8333   -0.1181 H   0  0  0  0  0  0  0  0  0  0  0  0
    0.1205   -1.6772    1.6465 H   0  0  0  0  0  0  0  0  0  0  0  0
    1.5570   -2.1825    0.7452 H   0  0  0  0  0  0  0  0  0  0  0  0
   -4.4395    2.4073   -0.7375 H   0  0  0  0  0  0  0  0  0  0  0  0
   -5.6166    3.3429    1.9108 H   0  0  0  0  0  0  0  0  0  0  0  0
   -6.1778    1.9384    0.9892 H   0  0  0  0  0  0  0  0  0  0  0  0
   -6.3306    3.5581    0.3138 H   0  0  0  0  0  0  0  0  0  0  0  0
   -3.4020    4.5440    1.1631 H   0  0  0  0  0  0  0  0  0  0  0  0
   -2.8237    4.1991   -0.4816 H   0  0  0  0  0  0  0  0  0  0  0  0
   -4.4194    4.8790   -0.2356 H   0  0  0  0  0  0  0  0  0  0  0  0
   -3.1711    3.3482    3.9755 H   0  0  0  0  0  0  0  0  0  0  0  0
  1  2  2  0  0  0  0
  2  3  1  0  0  0  0
  3  4  1  0  0  0  0
  4  5  4  0  0  0  0
  5  6  4  0  0  0  0
  6  7  1  0  0  0  0
  7  8  1  0  0  0  0
  6  9  4  0  0  0  0
  9 10  1  0  0  0  0
 10 11  1  0  0  0  0
  9 12  4  0  0  0  0
  4 13  4  0  0  0  0
 12 13  4  0  0  0  0
  3 14  1  0  0  0  0
 14 15  2  0  0  0  0
 15 16  4  0  0  0  0
 16 17  4  0  0  0  0
 17 18  1  0  0  0  0
 18 19  1  0  0  0  0
 19 20  1  0  0  0  0
 20 21  4  0  0  0  0
 21 22  4  0  0  0  0
 22 23  4  0  0  0  0
 23 24  1  0  0  0  0
 24 25  1  0  0  0  0
 23 26  4  0  0  0  0
 26 27  1  0  0  0  0
 27 28  1  0  0  0  0
 20 29  4  0  0  0  0
 26 29  4  0  0  0  0
 17 30  1  0  0  0  0
  3 31  1  0  0  0  0
 31 32  1  0  0  0  0
 31 33  1  0  0  0  0
  5 34  1  0  0  0  0
  8 35  1  0  0  0  0
  8 36  1  0  0  0  0
  8 37  1  0  0  0  0
 11 38  1  0  0  0  0
 11 39  1  0  0  0  0
 11 40  1  0  0  0  0
 12 41  1  0  0  0  0
 13 42  1  0  0  0  0
 14 44  1  0  0  0  0
 15 45  1  0  0  0  0
 43 46  1  0  0  0  0
  2 47  1  0  0  0  0
 16 48  1  0  0  0  0
 18 49  1  0  0  0  0
 18 50  1  0  0  0  0
 19 51  1  0  0  0  0
 19 52  1  0  0  0  0
 21 53  1  0  0  0  0
 22 54  1  0  0  0  0
 25 55  1  0  0  0  0
 25 56  1  0  0  0  0
 25 57  1  0  0  0  0
 28 58  1  0  0  0  0
 28 59  1  0  0  0  0
 28 60  1  0  0  0  0
 29 61  1  0  0  0  0
 30 62  1  0  0  0  0
 30 63  1  0  0  0  0
 30 64  1  0  0  0  0
 31 65  1  0  0  0  0
 32 66  1  0  0  0  0
 32 67  1  0  0  0  0
 32 68  1  0  0  0  0
 33 69  1  0  0  0  0
 33 70  1  0  0  0  0
 33 71  1  0  0  0  0
  1 72  1  0  0  0  0
M  CHG  1   1   1
M  END
