 xtb: 6.6.1 (8d0f1dd)
          06052420003D

 25 25  0     0  0            999 V2000
    3.1367    0.9260    0.2681 C   0  0  0  0  0  0  0  0  0  0  0  0
    2.2450   -0.0533    0.1812 N   0  0  0  0  0  0  0  0  0  0  0  0
    2.4733   -1.3870    0.1728 C   0  0  0  0  0  0  0  0  0  0  0  0
    1.2939   -2.0611    0.0988 N   0  0  0  0  0  0  0  0  0  0  0  0
    0.2873   -1.1481    0.0567 C   0  0  0  0  0  0  0  0  0  0  0  0
    0.8651    0.1104    0.1010 C   0  0  0  0  0  0  0  0  0  0  0  0
    0.0744    1.3194    0.0599 C   0  0  0  0  0  0  0  0  0  0  0  0
    0.5060    2.4474    0.0775 O   0  0  0  0  0  0  0  0  0  0  0  0
   -1.2894    1.0280   -0.0080 N   0  0  0  0  0  0  0  0  0  0  0  0
   -2.2140    2.1517   -0.0573 C   0  0  0  0  0  0  0  0  0  0  0  0
   -1.8913   -0.2158   -0.0313 C   0  0  0  0  0  0  0  0  0  0  0  0
   -3.0813   -0.3545   -0.0755 O   0  0  0  0  0  0  0  0  0  0  0  0
   -1.0398   -1.3438   -0.0037 N   0  0  0  0  0  0  0  0  0  0  0  0
   -1.6306   -2.6669   -0.0223 C   0  0  0  0  0  0  0  0  0  0  0  0
    4.1791    0.6886    0.3575 H   0  0  0  0  0  0  0  0  0  0  0  0
    4.5287    3.0418   -1.4323 H   0  0  0  0  0  0  0  0  0  0  0  0
    2.7836    1.9404    0.2760 H   0  0  0  0  0  0  0  0  0  0  0  0
    3.4403   -1.8443    0.2245 H   0  0  0  0  0  0  0  0  0  0  0  0
   -1.6313    3.0697   -0.0646 H   0  0  0  0  0  0  0  0  0  0  0  0
   -2.8288    2.0835   -0.9544 H   0  0  0  0  0  0  0  0  0  0  0  0
   -2.8725    2.1288    0.8109 H   0  0  0  0  0  0  0  0  0  0  0  0
   -1.3551   -3.2204    0.8757 H   0  0  0  0  0  0  0  0  0  0  0  0
   -1.3179   -3.2144   -0.9120 H   0  0  0  0  0  0  0  0  0  0  0  0
   -2.7127   -2.5414   -0.0447 H   0  0  0  0  0  0  0  0  0  0  0  0
    1.2116   -3.0660    0.0768 H   0  0  0  0  0  0  0  0  0  0  0  0
  1  2  4  0  0  0  0
  2  3  4  0  0  0  0
  3  4  4  0  0  0  0
  4  5  1  0  0  0  0
  2  6  1  0  0  0  0
  5  6  4  0  0  0  0
  6  7  1  0  0  0  0
  7  8  2  0  0  0  0
  7  9  1  0  0  0  0
  9 10  1  0  0  0  0
  9 11  1  0  0  0  0
 11 12  2  0  0  0  0
  5 13  4  0  0  0  0
 11 13  1  0  0  0  0
 13 14  1  0  0  0  0
  1 15  1  0  0  0  0
  1 17  1  0  0  0  0
  3 18  1  0  0  0  0
 10 19  1  0  0  0  0
 10 20  1  0  0  0  0
 10 21  1  0  0  0  0
 14 22  1  0  0  0  0
 14 23  1  0  0  0  0
 14 24  1  0  0  0  0
  4 25  1  0  0  0  0
M  CHG  1   1   1
M  END
