          62
 
N             -1.25856708        0.99558890        2.62177896
C             -1.47427318        1.67324906        1.55003666
C             -2.35167925        1.31218563        0.50355689
C             -3.15391410        0.12723661        0.49979146
C             -4.10596124       -0.12151748       -0.51698918
C             -4.85578052       -1.27774077       -0.54536741
O             -5.79554819       -1.57881762       -1.47255133
C             -6.12275997       -0.63014394       -2.45734727
C             -4.66971872       -2.27108711        0.45642779
O             -5.43029466       -3.37289365        0.33017353
C             -5.33396891       -4.39001712        1.30140883
C             -3.74396062       -2.02741326        1.46623924
C             -3.01207308       -0.86117132        1.49425859
C             -2.30846955        2.18989611       -0.71108678
C             -1.44556715        1.53104781       -1.83456709
C             -0.04012047        1.41604259       -1.40394669
N              0.52201218        0.32823954       -0.90528861
C              1.90025841        0.34420758       -0.47816452
C              2.83864740       -0.25419652       -1.54498439
C              4.26353540       -0.19288414       -1.07039144
C              4.98651257        0.98438436       -1.17239096
C              6.29049772        1.05959984       -0.70835591
C              6.89910947       -0.04544158       -0.13155569
O              8.15577055       -0.08687474        0.35251845
C              8.95446400        1.07156695        0.28525847
C              6.16766666       -1.25978079       -0.02759684
O              6.83855323       -2.28643523        0.53415704
C              6.21270012       -3.54260339        0.64023491
C              4.86258488       -1.30889807       -0.49175815
C             -0.14962526       -0.94992066       -0.88409986
H             -4.27715440        0.61736575       -1.28132967
H             -6.48978358        0.30038244       -2.01222995
H             -6.91809870       -1.08318040       -3.04687120
H             -5.27075895       -0.41321279       -3.11023042
H             -5.58660279       -4.01650566        2.29761801
H             -6.05788370       -5.14781473        1.00567119
H             -4.33336222       -4.83281605        1.31806386
H             -3.59472897       -2.75781743        2.24431369
H             -2.30445473       -0.68306993        2.28869824
H             -3.30142436        2.38004056       -1.11619736
H             -1.86750369        3.15674332       -0.46334437
H             -1.87507722        0.56184363       -2.08027360
H             -1.49504092        2.17901311       -2.71281207
H             -0.95646703        2.63195360        1.38242008
H              0.55622322        2.31573636       -1.39025197
H              1.98838799       -0.22793384        0.44898211
H              2.20566730        1.37199087       -0.27414649
H              2.72789532        0.31897845       -2.46769149
H              2.55531074       -1.28796877       -1.74600125
H              4.53963624        1.85490599       -1.62825614
H              6.82888874        1.98786120       -0.80655715
H              8.51309524        1.89599047        0.85380760
H              9.11708575        1.38691241       -0.74981682
H              9.90758350        0.79530143        0.73193440
H              6.95294912       -4.19989476        1.09238073
H              5.32826369       -3.49847338        1.28393173
H              5.93218246       -3.93546497       -0.34209957
H              4.29998600       -2.22640195       -0.41824385
H             -0.40974776       -1.27250083       -1.89449816
H             -1.06035027       -0.89621428       -0.28539995
H              0.50797163       -1.69273130       -0.44140979
H             -0.61904234        1.41319674        3.28739705
