          37
 
N             -1.62045186        3.04141310        2.45993168
C             -1.78522059        2.42334820        1.38805579
C             -3.11175274        2.35763059        0.66344007
C             -3.48336451        0.87781855        0.49851790
C             -4.34880861        0.49651488       -0.52399459
C             -4.73648958       -0.82545556       -0.67702786
O             -5.56577039       -1.28981455       -1.63029222
C             -6.13953647       -0.38619026       -2.54646069
C             -4.24156750       -1.80820485        0.22535919
O             -4.66604797       -3.06620634        0.00009511
C             -4.27912896       -4.09206375        0.88431302
C             -3.38319894       -1.41246315        1.24129621
C             -3.00742747       -0.08291331        1.37620475
C             -2.86309010        2.94619111       -0.66732376
C             -4.28690327        3.08625829        1.37652565
C             -4.62202391        2.46660485        2.72821488
C             -4.00014117        4.57618229        1.54032446
H             -4.72195353        1.24812550       -1.19915737
H             -6.76307040        0.35546629       -2.03896988
H             -6.76182994       -0.99169741       -3.20210817
H             -5.37435187        0.12235222       -3.14033093
H             -4.61301667       -3.88788604        1.90569372
H             -4.76820242       -4.99245066        0.51837992
H             -3.19466541       -4.24056375        0.87714342
H             -3.01068954       -2.13449470        1.95022237
H             -2.35688164        0.19731398        2.18966821
H             -3.63166794        3.48374891       -1.18889380
H             -1.90193400        2.85209210       -1.13417003
H             -0.99002295        1.89153925        0.84404792
H             -5.15657229        2.96835294        0.71870984
H             -3.76955145        2.54633175        3.39625394
H             -4.89920984        1.41999090        2.62671882
H             -5.45791495        2.99977018        3.17354339
H             -3.19770082        4.72356285        2.25695394
H             -3.70808998        5.02825264        0.59525086
H             -4.88950801        5.08271972        1.90584406
H             -0.68869699        3.06546663        2.86124186
