          21
 
C              3.31484759        1.03609609        0.05176782
N              2.38785956       -0.06212420       -0.01538890
C              2.67527725       -1.34940371       -0.12617503
N              1.53604395       -2.07604455       -0.12517270
C              0.48211743       -1.21034554       -0.00887674
C              1.02895312        0.06508078        0.06333964
C              0.14993656        1.25117148        0.13477874
O              0.58697818        2.38543230        0.13812312
N             -1.14513569        0.91168412        0.16919996
C             -1.71443718       -0.28274864        0.13431322
O             -2.89657353       -0.49585280        0.16859294
N             -0.82722211       -1.45307146        0.02867977
C             -1.40239250       -2.77402067       -0.02900779
H              3.82749888        1.03994841        1.01507148
H              4.05660355        0.95942111       -0.74214295
H              2.75285078        1.96613907       -0.04930466
H              3.66208881       -1.76261254       -0.20443692
H             -1.09845050       -3.36826418        0.83550752
H             -1.11759596       -3.28299927       -0.95164024
H             -2.48634011       -2.64997991       -0.00824031
H              1.48500349       -3.08101200       -0.21051322
