 xtb: 6.6.1 (8d0f1dd)
          04062411163D

 72 73  0     0  0            999 V2000
   -1.9292    2.6725    2.2518 N   0  0  0  0  0  0  0  0  0  0  0  0
   -1.8513    2.0523    1.1705 C   0  0  0  0  0  0  0  0  0  0  0  0
   -2.9693    1.9374    0.1673 C   0  0  0  0  0  0  0  0  0  0  0  0
   -3.4364    0.4928    0.2566 C   0  0  0  0  0  0  0  0  0  0  0  0
   -4.4718    0.0190   -0.5905 C   0  0  0  0  0  0  0  0  0  0  0  0
   -4.9550   -1.2824   -0.4792 C   0  0  0  0  0  0  0  0  0  0  0  0
   -5.9290   -1.8154   -1.2638 O   0  0  0  0  0  0  0  0  0  0  0  0
   -6.5592   -0.9980   -2.2218 C   0  0  0  0  0  0  0  0  0  0  0  0
   -4.4458   -2.1468    0.4963 C   0  0  0  0  0  0  0  0  0  0  0  0
   -4.9979   -3.3620    0.5849 O   0  0  0  0  0  0  0  0  0  0  0  0
   -4.5681   -4.2626    1.5780 C   0  0  0  0  0  0  0  0  0  0  0  0
   -3.3406   -1.7060    1.4032 C   0  0  0  0  0  0  0  0  0  0  0  0
   -2.8398   -0.3463    1.1375 C   0  0  0  0  0  0  0  0  0  0  0  0
   -2.3929    2.2388   -1.2360 C   0  0  0  0  0  0  0  0  0  0  0  0
   -1.4426    1.1563   -1.7776 C   0  0  0  0  0  0  0  0  0  0  0  0
   -0.1099    1.1696   -1.1350 C   0  0  0  0  0  0  0  0  0  0  0  0
    0.5538    0.1004   -0.7142 N   0  0  0  0  0  0  0  0  0  0  0  0
    1.9326    0.2017   -0.3024 C   0  0  0  0  0  0  0  0  0  0  0  0
    2.8913   -0.3162   -1.3916 C   0  0  0  0  0  0  0  0  0  0  0  0
    4.3128   -0.1240   -0.9438 C   0  0  0  0  0  0  0  0  0  0  0  0
    4.9572    1.0844   -1.1510 C   0  0  0  0  0  0  0  0  0  0  0  0
    6.2541    1.2829   -0.7035 C   0  0  0  0  0  0  0  0  0  0  0  0
    6.9322    0.2742   -0.0347 C   0  0  0  0  0  0  0  0  0  0  0  0
    8.1884    0.3562    0.4437 O   0  0  0  0  0  0  0  0  0  0  0  0
    8.9153    1.5491    0.2600 C   0  0  0  0  0  0  0  0  0  0  0  0
    6.2793   -0.9700    0.1819 C   0  0  0  0  0  0  0  0  0  0  0  0
    7.0116   -1.8964    0.8338 O   0  0  0  0  0  0  0  0  0  0  0  0
    6.4605   -3.1703    1.0658 C   0  0  0  0  0  0  0  0  0  0  0  0
    4.9814   -1.1440   -0.2714 C   0  0  0  0  0  0  0  0  0  0  0  0
   -0.0717   -1.1968   -0.6482 C   0  0  0  0  0  0  0  0  0  0  0  0
   -4.1641    2.8879    0.4606 C   0  0  0  0  0  0  0  0  0  0  0  0
   -4.8656    2.5281    1.7683 C   0  0  0  0  0  0  0  0  0  0  0  0
   -3.7561    4.3589    0.4869 C   0  0  0  0  0  0  0  0  0  0  0  0
   -4.8876    0.6821   -1.3304 H   0  0  0  0  0  0  0  0  0  0  0  0
   -7.0457   -0.1349   -1.7574 H   0  0  0  0  0  0  0  0  0  0  0  0
   -7.3144   -1.6284   -2.6870 H   0  0  0  0  0  0  0  0  0  0  0  0
   -5.8546   -0.6565   -2.9875 H   0  0  0  0  0  0  0  0  0  0  0  0
   -4.7188   -3.8555    2.5823 H   0  0  0  0  0  0  0  0  0  0  0  0
   -5.1824   -5.1523    1.4537 H   0  0  0  0  0  0  0  0  0  0  0  0
   -3.5144   -4.5307    1.4526 H   0  0  0  0  0  0  0  0  0  0  0  0
   -2.5216   -2.4391    1.3749 H   0  0  0  0  0  0  0  0  0  0  0  0
   -3.7010   -1.7273    2.4441 H   0  0  0  0  0  0  0  0  0  0  0  0
   -3.2220    2.3398   -1.9365 H   0  0  0  0  0  0  0  0  0  0  0  0
   -1.8655    3.1926   -1.2060 H   0  0  0  0  0  0  0  0  0  0  0  0
   -1.9199    0.1811   -1.7009 H   0  0  0  0  0  0  0  0  0  0  0  0
   -1.2920    1.3732   -2.8432 H   0  0  0  0  0  0  0  0  0  0  0  0
   -0.9382    1.5412    0.8196 H   0  0  0  0  0  0  0  0  0  0  0  0
    0.4292    2.1054   -1.1307 H   0  0  0  0  0  0  0  0  0  0  0  0
    2.0786   -0.3755    0.6147 H   0  0  0  0  0  0  0  0  0  0  0  0
    2.1716    1.2456   -0.0899 H   0  0  0  0  0  0  0  0  0  0  0  0
    2.7107    0.2420   -2.3118 H   0  0  0  0  0  0  0  0  0  0  0  0
    2.6941   -1.3716   -1.5832 H   0  0  0  0  0  0  0  0  0  0  0  0
    4.4539    1.8821   -1.6759 H   0  0  0  0  0  0  0  0  0  0  0  0
    6.7312    2.2318   -0.8851 H   0  0  0  0  0  0  0  0  0  0  0  0
    8.4295    2.3947    0.7565 H   0  0  0  0  0  0  0  0  0  0  0  0
    9.0503    1.7765   -0.8017 H   0  0  0  0  0  0  0  0  0  0  0  0
    9.8868    1.3722    0.7174 H   0  0  0  0  0  0  0  0  0  0  0  0
    7.2365   -3.7353    1.5785 H   0  0  0  0  0  0  0  0  0  0  0  0
    5.5734   -3.1141    1.7050 H   0  0  0  0  0  0  0  0  0  0  0  0
    6.2058   -3.6745    0.1283 H   0  0  0  0  0  0  0  0  0  0  0  0
    4.4785   -2.0857   -0.1162 H   0  0  0  0  0  0  0  0  0  0  0  0
   -0.2901   -1.5854   -1.6449 H   0  0  0  0  0  0  0  0  0  0  0  0
   -1.0063   -1.1188   -0.0815 H   0  0  0  0  0  0  0  0  0  0  0  0
    0.5929   -1.8919   -0.1420 H   0  0  0  0  0  0  0  0  0  0  0  0
   -4.8828    2.7532   -0.3565 H   0  0  0  0  0  0  0  0  0  0  0  0
   -4.1796    2.6492    2.6004 H   0  0  0  0  0  0  0  0  0  0  0  0
   -5.2244    1.5018    1.7543 H   0  0  0  0  0  0  0  0  0  0  0  0
   -5.7171    3.1866    1.9187 H   0  0  0  0  0  0  0  0  0  0  0  0
   -3.0187    4.5299    1.2650 H   0  0  0  0  0  0  0  0  0  0  0  0
   -3.3535    4.6862   -0.4680 H   0  0  0  0  0  0  0  0  0  0  0  0
   -4.6287    4.9688    0.7058 H   0  0  0  0  0  0  0  0  0  0  0  0
   -1.1119    2.6801    2.8533 H   0  0  0  0  0  0  0  0  0  0  0  0
  1  2  2  0  0  0  0
  2  3  1  0  0  0  0
  3  4  1  0  0  0  0
  4  5  4  0  0  0  0
  5  6  4  0  0  0  0
  6  7  1  0  0  0  0
  7  8  1  0  0  0  0
  6  9  4  0  0  0  0
  9 10  1  0  0  0  0
 10 11  1  0  0  0  0
  9 12  1  0  0  0  0
  4 13  2  0  0  0  0
 12 13  1  0  0  0  0
  3 14  1  0  0  0  0
 14 15  1  0  0  0  0
 15 16  1  0  0  0  0
 16 17  4  0  0  0  0
 17 18  1  0  0  0  0
 18 19  1  0  0  0  0
 19 20  1  0  0  0  0
 20 21  4  0  0  0  0
 21 22  4  0  0  0  0
 22 23  4  0  0  0  0
 23 24  1  0  0  0  0
 24 25  1  0  0  0  0
 23 26  4  0  0  0  0
 26 27  1  0  0  0  0
 27 28  1  0  0  0  0
 20 29  4  0  0  0  0
 26 29  4  0  0  0  0
 17 30  1  0  0  0  0
  3 31  1  0  0  0  0
 31 32  1  0  0  0  0
 31 33  1  0  0  0  0
  5 34  1  0  0  0  0
  8 35  1  0  0  0  0
  8 36  1  0  0  0  0
  8 37  1  0  0  0  0
 11 38  1  0  0  0  0
 11 39  1  0  0  0  0
 11 40  1  0  0  0  0
 12 41  1  0  0  0  0
 12 42  1  0  0  0  0
 14 43  1  0  0  0  0
 14 44  1  0  0  0  0
 15 45  1  0  0  0  0
 15 46  1  0  0  0  0
  2 47  1  0  0  0  0
 16 48  1  0  0  0  0
 18 49  1  0  0  0  0
 18 50  1  0  0  0  0
 19 51  1  0  0  0  0
 19 52  1  0  0  0  0
 21 53  1  0  0  0  0
 22 54  1  0  0  0  0
 25 55  1  0  0  0  0
 25 56  1  0  0  0  0
 25 57  1  0  0  0  0
 28 58  1  0  0  0  0
 28 59  1  0  0  0  0
 28 60  1  0  0  0  0
 29 61  1  0  0  0  0
 30 62  1  0  0  0  0
 30 63  1  0  0  0  0
 30 64  1  0  0  0  0
 31 65  1  0  0  0  0
 32 66  1  0  0  0  0
 32 67  1  0  0  0  0
 32 68  1  0  0  0  0
 33 69  1  0  0  0  0
 33 70  1  0  0  0  0
 33 71  1  0  0  0  0
  1 72  1  0  0  0  0
M  CHG  1   1   1
M  END
