 xtb: 6.6.1 (8d0f1dd)
          04062411163D

 72 73  0     0  0            999 V2000
   -1.7684    3.2458    1.9509 N   0  0  0  0  0  0  0  0  0  0  0  0
   -1.8814    2.2864    1.1579 C   0  0  0  0  0  0  0  0  0  0  0  0
   -3.0386    2.0924    0.2157 C   0  0  0  0  0  0  0  0  0  0  0  0
   -3.6323    0.7180    0.4461 C   0  0  0  0  0  0  0  0  0  0  0  0
   -4.5084    0.1588   -0.4686 C   0  0  0  0  0  0  0  0  0  0  0  0
   -4.9699   -1.1462   -0.3200 C   0  0  0  0  0  0  0  0  0  0  0  0
   -5.9032   -1.7363   -1.0572 O   0  0  0  0  0  0  0  0  0  0  0  0
   -6.6070   -1.2102   -2.0173 C   0  0  0  0  0  0  0  0  0  0  0  0
   -4.3228   -2.0731    0.6734 C   0  0  0  0  0  0  0  0  0  0  0  0
   -3.2443   -2.7585   -0.0288 O   0  0  0  0  0  0  0  0  0  0  0  0
   -3.2064   -4.1514    0.1583 C   0  0  0  0  0  0  0  0  0  0  0  0
   -3.7217   -1.2921    1.8008 C   0  0  0  0  0  0  0  0  0  0  0  0
   -3.3458   -0.0071    1.6385 C   0  0  0  0  0  0  0  0  0  0  0  0
   -2.4355    2.1688   -1.2144 C   0  0  0  0  0  0  0  0  0  0  0  0
   -1.6127    0.9371   -1.6262 C   0  0  0  0  0  0  0  0  0  0  0  0
   -0.3003    0.8574   -0.9514 C   0  0  0  0  0  0  0  0  0  0  0  0
    0.2924   -0.2607   -0.5631 N   0  0  0  0  0  0  0  0  0  0  0  0
    1.6639   -0.2288   -0.1123 C   0  0  0  0  0  0  0  0  0  0  0  0
    2.6395   -0.5888   -1.2506 C   0  0  0  0  0  0  0  0  0  0  0  0
    4.0549   -0.3276   -0.8194 C   0  0  0  0  0  0  0  0  0  0  0  0
    4.6142    0.9297   -0.9804 C   0  0  0  0  0  0  0  0  0  0  0  0
    5.9108    1.1888   -0.5649 C   0  0  0  0  0  0  0  0  0  0  0  0
    6.6744    0.1928    0.0264 C   0  0  0  0  0  0  0  0  0  0  0  0
    7.9408    0.3300    0.4621 O   0  0  0  0  0  0  0  0  0  0  0  0
    8.5906    1.5699    0.3016 C   0  0  0  0  0  0  0  0  0  0  0  0
    6.1070   -1.0996    0.2014 C   0  0  0  0  0  0  0  0  0  0  0  0
    6.9175   -2.0074    0.7813 O   0  0  0  0  0  0  0  0  0  0  0  0
    6.4549   -3.3235    0.9686 C   0  0  0  0  0  0  0  0  0  0  0  0
    4.8078   -1.3344   -0.2206 C   0  0  0  0  0  0  0  0  0  0  0  0
   -0.3164   -1.5579   -0.7328 C   0  0  0  0  0  0  0  0  0  0  0  0
   -4.1635    3.1581    0.3739 C   0  0  0  0  0  0  0  0  0  0  0  0
   -4.7874    3.0951    1.7660 C   0  0  0  0  0  0  0  0  0  0  0  0
   -3.6979    4.5809    0.0790 C   0  0  0  0  0  0  0  0  0  0  0  0
   -4.8562    0.7485   -1.3031 H   0  0  0  0  0  0  0  0  0  0  0  0
   -5.0284   -2.8247    1.0198 H   0  0  0  0  0  0  0  0  0  0  0  0
   -7.3076   -1.8736   -2.4864 H   0  0  0  0  0  0  0  0  0  0  0  0
   -6.5159   -0.1837   -2.3239 H   0  0  0  0  0  0  0  0  0  0  0  0
   -4.1249   -4.6252   -0.2030 H   0  0  0  0  0  0  0  0  0  0  0  0
   -2.3627   -4.5147   -0.4262 H   0  0  0  0  0  0  0  0  0  0  0  0
   -3.0566   -4.4125    1.2110 H   0  0  0  0  0  0  0  0  0  0  0  0
   -3.5143   -1.8249    2.7140 H   0  0  0  0  0  0  0  0  0  0  0  0
   -2.8506    0.5129    2.4455 H   0  0  0  0  0  0  0  0  0  0  0  0
   -3.2511    2.2863   -1.9274 H   0  0  0  0  0  0  0  0  0  0  0  0
   -1.8084    3.0584   -1.2824 H   0  0  0  0  0  0  0  0  0  0  0  0
   -2.1938    0.0290   -1.4680 H   0  0  0  0  0  0  0  0  0  0  0  0
   -1.4260    1.0221   -2.7055 H   0  0  0  0  0  0  0  0  0  0  0  0
   -1.1167    1.4980    1.0325 H   0  0  0  0  0  0  0  0  0  0  0  0
    0.2758    1.7669   -0.8631 H   0  0  0  0  0  0  0  0  0  0  0  0
    1.7884   -0.9308    0.7156 H   0  0  0  0  0  0  0  0  0  0  0  0
    1.9018    0.7735    0.2507 H   0  0  0  0  0  0  0  0  0  0  0  0
    2.4005    0.0288   -2.1187 H   0  0  0  0  0  0  0  0  0  0  0  0
    2.5132   -1.6361   -1.5262 H   0  0  0  0  0  0  0  0  0  0  0  0
    4.0443    1.7190   -1.4469 H   0  0  0  0  0  0  0  0  0  0  0  0
    6.3210    2.1743   -0.7119 H   0  0  0  0  0  0  0  0  0  0  0  0
    8.0818    2.3639    0.8566 H   0  0  0  0  0  0  0  0  0  0  0  0
    8.6634    1.8500   -0.7536 H   0  0  0  0  0  0  0  0  0  0  0  0
    9.5906    1.4302    0.7076 H   0  0  0  0  0  0  0  0  0  0  0  0
    7.2818   -3.8608    1.4288 H   0  0  0  0  0  0  0  0  0  0  0  0
    5.5885   -3.3533    1.6371 H   0  0  0  0  0  0  0  0  0  0  0  0
    6.2000   -3.7987    0.0162 H   0  0  0  0  0  0  0  0  0  0  0  0
    4.3704   -2.3130   -0.0999 H   0  0  0  0  0  0  0  0  0  0  0  0
   -0.3985   -1.8161   -1.7908 H   0  0  0  0  0  0  0  0  0  0  0  0
   -1.3172   -1.5926   -0.2960 H   0  0  0  0  0  0  0  0  0  0  0  0
    0.2968   -2.3071   -0.2389 H   0  0  0  0  0  0  0  0  0  0  0  0
   -4.9399    2.8956   -0.3545 H   0  0  0  0  0  0  0  0  0  0  0  0
   -4.0580    3.3866    2.5152 H   0  0  0  0  0  0  0  0  0  0  0  0
   -5.1460    2.0930    1.9905 H   0  0  0  0  0  0  0  0  0  0  0  0
   -5.6296    3.7796    1.8207 H   0  0  0  0  0  0  0  0  0  0  0  0
   -2.8855    4.8548    0.7443 H   0  0  0  0  0  0  0  0  0  0  0  0
   -3.3749    4.6972   -0.9520 H   0  0  0  0  0  0  0  0  0  0  0  0
   -4.5239    5.2668    0.2479 H   0  0  0  0  0  0  0  0  0  0  0  0
   -0.9298    3.2902    2.5217 H   0  0  0  0  0  0  0  0  0  0  0  0
  1  2  2  0  0  0  0
  2  3  1  0  0  0  0
  3  4  1  0  0  0  0
  4  5  4  0  0  0  0
  5  6  4  0  0  0  0
  6  7  1  0  0  0  0
  7  8  4  0  0  0  0
  6  9  1  0  0  0  0
  9 10  1  0  0  0  0
 10 11  1  0  0  0  0
  9 12  1  0  0  0  0
  4 13  4  0  0  0  0
 12 13  2  0  0  0  0
  3 14  1  0  0  0  0
 14 15  1  0  0  0  0
 15 16  1  0  0  0  0
 16 17  4  0  0  0  0
 17 18  1  0  0  0  0
 18 19  1  0  0  0  0
 19 20  1  0  0  0  0
 20 21  4  0  0  0  0
 21 22  4  0  0  0  0
 22 23  4  0  0  0  0
 23 24  1  0  0  0  0
 24 25  1  0  0  0  0
 23 26  4  0  0  0  0
 26 27  1  0  0  0  0
 27 28  1  0  0  0  0
 20 29  4  0  0  0  0
 26 29  4  0  0  0  0
 17 30  1  0  0  0  0
  3 31  1  0  0  0  0
 31 32  1  0  0  0  0
 31 33  1  0  0  0  0
  5 34  1  0  0  0  0
  9 35  1  0  0  0  0
  8 36  1  0  0  0  0
  8 37  1  0  0  0  0
 11 38  1  0  0  0  0
 11 39  1  0  0  0  0
 11 40  1  0  0  0  0
 12 41  1  0  0  0  0
 13 42  1  0  0  0  0
 14 43  1  0  0  0  0
 14 44  1  0  0  0  0
 15 45  1  0  0  0  0
 15 46  1  0  0  0  0
  2 47  1  0  0  0  0
 16 48  1  0  0  0  0
 18 49  1  0  0  0  0
 18 50  1  0  0  0  0
 19 51  1  0  0  0  0
 19 52  1  0  0  0  0
 21 53  1  0  0  0  0
 22 54  1  0  0  0  0
 25 55  1  0  0  0  0
 25 56  1  0  0  0  0
 25 57  1  0  0  0  0
 28 58  1  0  0  0  0
 28 59  1  0  0  0  0
 28 60  1  0  0  0  0
 29 61  1  0  0  0  0
 30 62  1  0  0  0  0
 30 63  1  0  0  0  0
 30 64  1  0  0  0  0
 31 65  1  0  0  0  0
 32 66  1  0  0  0  0
 32 67  1  0  0  0  0
 32 68  1  0  0  0  0
 33 69  1  0  0  0  0
 33 70  1  0  0  0  0
 33 71  1  0  0  0  0
  1 72  1  0  0  0  0
M  CHG  1   1   1
M  END
