          24
 
C              3.14840427        1.08277511        0.01980280
N              2.27780481        0.07771617        0.00765760
C              2.54421239       -1.24972208        0.01250930
N              1.38466918       -1.95194271        0.01308948
C              0.34669724       -1.06423838        0.01015627
C              0.88994868        0.20601517        0.00685839
C              0.06736389        1.39833148       -0.00490557
O              0.47274093        2.53375411       -0.02686253
N             -1.28779528        1.06648768        0.01216479
C             -2.24534412        2.16656640        0.03115184
C             -1.85832802       -0.19046585        0.01004017
O             -3.04197605       -0.36797122        0.01335758
N             -0.97059699       -1.29934727        0.00324972
C             -1.52506009       -2.63864926       -0.01026315
H              4.20744203        0.87850443        0.02005136
H              2.76415372        2.08754191       -0.00486882
H              3.52197116       -1.68600776        0.02707089
H             -1.68822122        3.09914148        0.00083634
H             -2.91039420        2.09286246       -0.82870638
H             -2.84686684        2.11441034        0.93815484
H             -1.21010005       -3.19320555        0.87377097
H             -1.22517888       -3.16769146       -0.91541466
H             -2.61040329       -2.54066673       -0.00043750
H              1.31909141       -2.95974093        0.01794916
