          71
 
N             -1.75587175        2.74008687        2.51248520
C             -1.74239286        2.12182698        1.42792761
C             -2.90330625        2.04037638        0.47537646
C             -3.42544493        0.61251109        0.43022407
C             -4.37621096        0.25273008       -0.52718476
C             -4.89998283       -1.02809281       -0.58208922
O             -5.82960416       -1.45237235       -1.46251782
C             -6.42463162       -0.52366218       -2.33822637
C             -4.45155004       -2.00807998        0.34463911
O             -5.00669825       -3.22918362        0.21199168
C             -4.67673588       -4.23610229        1.13993736
C             -3.50845811       -1.64436450        1.29240442
C             -3.00586375       -0.34958686        1.33572785
C             -2.34292818        2.44766288       -0.91297979
C             -1.47553365        1.37274336       -1.59293659
C             -0.14463457        1.19796882       -0.97091583
N              0.42957068        0.03339968       -0.70358961
C              1.81062037       -0.03175913       -0.29123913
C              2.72186425       -0.57463122       -1.40820738
C              4.15402903       -0.41883665       -0.98578726
C              4.81086195        0.78203298       -1.03158331
C              6.06661637        1.01119351       -0.65133658
C              6.86284617        0.00270929       -0.13510596
O              8.13373647        0.06319471        0.28325750
C              8.83335724        1.28289725        0.17255152
C              6.22945738       -1.27966551       -0.03659602
O              7.02403123       -2.24064178        0.48457262
C              6.52044232       -3.54606034        0.64371147
C              4.91667283       -1.46527834       -0.44940098
C             -0.26186780       -1.22275001       -0.86903221
C             -4.08554038        2.97736201        0.86460096
C             -4.72901715        2.54845444        2.18115373
C             -3.68778624        4.44858740        0.94123574
H             -4.72319584        0.99141480       -1.23040278
H             -6.90093763        0.29502331       -1.79052111
H             -7.18365471       -1.08160914       -2.88296661
H             -5.69808599       -0.11649920       -3.04898785
H             -4.93580941       -3.94058531        2.16088467
H             -5.26960034       -5.10252106        0.85370278
H             -3.61372748       -4.49352787        1.09232609
H             -3.16446063       -2.36072030        2.02066618
H             -2.29819112       -0.09641415        2.10993275
H             -3.17830335        2.67280304       -1.57503613
H             -1.75675799        3.36054356       -0.80077497
H             -2.02467266        0.43399012       -1.63694246
H             -1.30838850        1.71174771       -2.62365423
H             -0.85151769        1.59922441        1.02768818
H              0.47016307        2.07865480       -0.85376054
H              1.89540247       -0.67074207        0.59301405
H              2.15600744        0.96934993       -0.02541882
H              2.55257988        0.01320435       -2.31320498
H              2.49112976       -1.61873007       -1.61882077
H              6.46992734        2.18534195       -0.78228084
H              8.37393820        2.06222914        0.78695630
H              8.88282243        1.61923253       -0.86680964
H              9.83824786        1.07953979        0.53712169
H              7.33467232       -4.12072718        1.08133310
H              5.66096275       -3.56487515        1.32171843
H              6.24119080       -3.98993643       -0.31694363
H              4.46513231       -2.44250819       -0.37566347
H             -0.44959011       -1.43345614       -1.92393485
H             -1.21594020       -1.20773786       -0.33678885
H              0.34969247       -2.02247218       -0.45938446
H             -4.83684061        2.87153561        0.07362412
H             -4.01986562        2.65829295        2.99523311
H             -5.06115004        1.51397448        2.13875995
H             -5.59194039        3.17660467        2.38591365
H             -2.93144229        4.59550917        1.70601730
H             -3.31406908        4.81934005       -0.00950486
H             -4.56014833        5.03912023        1.20877992
H             -0.90403671        2.75305156        3.06447085
