          71
 
N             -1.76793262        2.70237494        2.50358507
C             -1.74755216        2.09195014        1.41426990
C             -2.90605844        2.01539245        0.45814452
C             -3.44758031        0.59376025        0.42862074
C             -4.41977584        0.24612378       -0.51158972
C             -4.96126990       -1.02735982       -0.55736096
O             -5.91367652       -1.43727409       -1.42013144
C             -6.50572224       -0.49930876       -2.28779558
C             -4.50706477       -2.01428266        0.35929391
O             -5.08040648       -3.22743415        0.23533333
C             -4.73709212       -4.24570422        1.14607470
C             -3.54091120       -1.66327778        1.28858403
C             -3.02230997       -0.37464679        1.32458109
C             -2.34088768        2.39303509       -0.93673559
C             -1.47147421        1.30338470       -1.59013207
C             -0.12741931        1.18010188       -0.98493120
N              0.49227223        0.03866818       -0.70374250
C              1.87936033        0.03823838       -0.30222274
C              2.81546020       -0.33401893       -1.46876085
C              4.24930123       -0.24164237       -1.02639489
C              4.94619542        0.95588052       -1.13442139
C              6.25465968        1.06888528       -0.69152367
C              6.90700881       -0.01858661       -0.12623131
O              8.16727460       -0.03317491        0.33625264
C              8.94629539        1.14120740        0.25851099
C              6.20358852       -1.25017452       -0.02427109
O              6.90737435       -2.26270577        0.53438218
C              6.53494927       -3.51099448        0.59705126
C              4.88435145       -1.33976901       -0.46516469
C             -0.15830748       -1.24132309       -0.85243970
C             -4.07389840        2.97670539        0.83176046
C             -4.73329013        2.57288484        2.14825849
C             -3.64986773        4.44142308        0.89525840
H             -4.76939507        0.98944222       -1.20837348
H             -6.96396233        0.32534066       -1.73351457
H             -7.27877570       -1.04545126       -2.82457893
H             -5.78151140       -0.10141417       -3.00615878
H             -4.96567436       -3.95654870        2.17607091
H             -5.34705671       -5.10300526        0.86831081
H             -3.67867188       -4.51420808        1.06788174
H             -3.19127249       -2.38538217        2.00855151
H             -2.29719270       -0.13189506        2.08591111
H             -3.17470826        2.60539237       -1.60460339
H             -1.75400111        3.30740143       -0.84261566
H             -2.00608003        0.35509092       -1.58363639
H             -1.33260998        1.59908820       -2.63847589
H             -0.85463309        1.57166750        1.01679404
H              0.45682135        2.08299780       -0.88365352
H              2.01593822       -0.67491565        0.51514183
H              2.14913274        1.03141630        0.06318078
H              2.63723857        0.35577328       -2.29510829
H              2.59228491       -1.34568560       -1.80899431
H              4.46862066        1.81629732       -1.57716105
H              6.76220831        2.01369744       -0.79470629
H              8.49872852        1.95674179        0.83335864
H              9.08991636        1.45680383       -0.77856280
H              9.90894035        0.87913959        0.69299302
H              7.21872785       -4.16391979        1.10536545
H              5.61417970       -3.88443000        0.18301353
H              4.34784511       -2.27051937       -0.36574496
H             -0.34417771       -1.47109429       -1.90402947
H             -1.11156008       -1.24870720       -0.31801015
H              0.47716635       -2.01828965       -0.43497160
H             -4.82269884        2.87788987        0.03771673
H             -4.02780257        2.67835185        2.96591420
H             -5.08304856        1.54394682        2.11392697
H             -5.58641531        3.21818695        2.34051556
H             -2.88812912        4.58187948        1.65589406
H             -3.27392775        4.79769251       -0.06025158
H             -4.51049030        5.04954615        1.16135119
H             -0.91975462        2.70890612        3.06140209
