 xtb: 6.6.1 (8d0f1dd)
          04062411153D

 72 73  0     0  0            999 V2000
   -1.8901    2.7922    2.2388 N   0  0  0  0  0  0  0  0  0  0  0  0
   -1.8350    2.1169    1.1901 C   0  0  0  0  0  0  0  0  0  0  0  0
   -2.9838    1.9112    0.2417 C   0  0  0  0  0  0  0  0  0  0  0  0
   -3.4628    0.4690    0.3241 C   0  0  0  0  0  0  0  0  0  0  0  0
   -4.4160    0.0044   -0.5847 C   0  0  0  0  0  0  0  0  0  0  0  0
   -4.8945   -1.2939   -0.5319 C   0  0  0  0  0  0  0  0  0  0  0  0
   -5.8235   -1.8177   -1.3576 O   0  0  0  0  0  0  0  0  0  0  0  0
   -6.4586   -0.9864   -2.3003 C   0  0  0  0  0  0  0  0  0  0  0  0
   -4.3945   -2.1849    0.4563 C   0  0  0  0  0  0  0  0  0  0  0  0
   -4.9076   -3.4309    0.4250 O   0  0  0  0  0  0  0  0  0  0  0  0
   -4.5184   -4.3577    1.4115 C   0  0  0  0  0  0  0  0  0  0  0  0
   -3.4488   -1.7181    1.3546 C   0  0  0  0  0  0  0  0  0  0  0  0
   -2.9930   -0.4067    1.2905 C   0  0  0  0  0  0  0  0  0  0  0  0
   -2.4280    2.1966   -1.1779 C   0  0  0  0  0  0  0  0  0  0  0  0
   -1.4908    1.1048   -1.7253 C   0  0  0  0  0  0  0  0  0  0  0  0
   -0.1561    1.0987   -1.0868 C   0  0  0  0  0  0  0  0  0  0  0  0
    0.5063    0.0189   -0.6890 N   0  0  0  0  0  0  0  0  0  0  0  0
    1.8868    0.1188   -0.2815 C   0  0  0  0  0  0  0  0  0  0  0  0
    2.8483   -0.3485   -1.3867 C   0  0  0  0  0  0  0  0  0  0  0  0
    4.2689   -0.1392   -0.9439 C   0  0  0  0  0  0  0  0  0  0  0  0
    4.9107    1.0690   -1.1615 C   0  0  0  0  0  0  0  0  0  0  0  0
    6.2065    1.2748   -0.7131 C   0  0  0  0  0  0  0  0  0  0  0  0
    6.8867    0.2751   -0.0323 C   0  0  0  0  0  0  0  0  0  0  0  0
    8.1400    0.3630    0.4494 O   0  0  0  0  0  0  0  0  0  0  0  0
    8.8803    1.5431    0.2372 C   0  0  0  0  0  0  0  0  0  0  0  0
    6.2365   -0.9696    0.1943 C   0  0  0  0  0  0  0  0  0  0  0  0
    6.9674   -1.8893    0.8549 O   0  0  0  0  0  0  0  0  0  0  0  0
    6.4166   -3.1634    1.0887 C   0  0  0  0  0  0  0  0  0  0  0  0
    4.9405   -1.1506   -0.2611 C   0  0  0  0  0  0  0  0  0  0  0  0
   -0.0923   -1.2944   -0.7020 C   0  0  0  0  0  0  0  0  0  0  0  0
   -4.1920    2.8498    0.5351 C   0  0  0  0  0  0  0  0  0  0  0  0
   -4.8373    2.5252    1.8802 C   0  0  0  0  0  0  0  0  0  0  0  0
   -3.8271    4.3307    0.4792 C   0  0  0  0  0  0  0  0  0  0  0  0
   -4.8016    0.6737   -1.3355 H   0  0  0  0  0  0  0  0  0  0  0  0
   -6.9643   -0.1452   -1.8169 H   0  0  0  0  0  0  0  0  0  0  0  0
   -7.1977   -1.6160   -2.7920 H   0  0  0  0  0  0  0  0  0  0  0  0
   -5.7521   -0.6103   -3.0475 H   0  0  0  0  0  0  0  0  0  0  0  0
   -4.7605   -3.9995    2.4164 H   0  0  0  0  0  0  0  0  0  0  0  0
   -5.0880   -5.2614    1.2038 H   0  0  0  0  0  0  0  0  0  0  0  0
   -3.4486   -4.5826    1.3510 H   0  0  0  0  0  0  0  0  0  0  0  0
   -3.0654   -2.3654    2.1266 H   0  0  0  0  0  0  0  0  0  0  0  0
   -2.2816   -0.0712    2.0294 H   0  0  0  0  0  0  0  0  0  0  0  0
   -3.2656    2.2979   -1.8668 H   0  0  0  0  0  0  0  0  0  0  0  0
   -1.8954    3.1482   -1.1640 H   0  0  0  0  0  0  0  0  0  0  0  0
   -1.9777    0.1338   -1.6542 H   0  0  0  0  0  0  0  0  0  0  0  0
   -1.3395    1.3261   -2.7900 H   0  0  0  0  0  0  0  0  0  0  0  0
   -0.9119    1.6270    0.8222 H   0  0  0  0  0  0  0  0  0  0  0  0
    0.3935    2.0287   -1.0767 H   0  0  0  0  0  0  0  0  0  0  0  0
    2.0485   -0.4919    0.6131 H   0  0  0  0  0  0  0  0  0  0  0  0
    2.1165    1.1580   -0.0361 H   0  0  0  0  0  0  0  0  0  0  0  0
    2.6575    0.2139   -2.2930 H   0  0  0  0  0  0  0  0  0  0  0  0
    2.6736   -1.4037   -1.5992 H   0  0  0  0  0  0  0  0  0  0  0  0
    4.4079    1.8611   -1.6953 H   0  0  0  0  0  0  0  0  0  0  0  0
    6.6824    2.2230   -0.9023 H   0  0  0  0  0  0  0  0  0  0  0  0
    8.4139    2.4031    0.7277 H   0  0  0  0  0  0  0  0  0  0  0  0
    9.0033    1.7524   -0.8295 H   0  0  0  0  0  0  0  0  0  0  0  0
    9.8556    1.3591    0.6838 H   0  0  0  0  0  0  0  0  0  0  0  0
    7.1900   -3.7264    1.6070 H   0  0  0  0  0  0  0  0  0  0  0  0
    5.5261   -3.1050    1.7230 H   0  0  0  0  0  0  0  0  0  0  0  0
    6.1666   -3.6698    0.1512 H   0  0  0  0  0  0  0  0  0  0  0  0
    4.4387   -2.0921   -0.1017 H   0  0  0  0  0  0  0  0  0  0  0  0
   -0.2649   -1.6405   -1.7231 H   0  0  0  0  0  0  0  0  0  0  0  0
   -1.0466   -1.2828   -0.1690 H   0  0  0  0  0  0  0  0  0  0  0  0
    0.5732   -1.9961   -0.2058 H   0  0  0  0  0  0  0  0  0  0  0  0
   -4.9334    2.6567   -0.2483 H   0  0  0  0  0  0  0  0  0  0  0  0
   -4.1359    2.7174    2.6855 H   0  0  0  0  0  0  0  0  0  0  0  0
   -5.1498    1.4847    1.9249 H   0  0  0  0  0  0  0  0  0  0  0  0
   -5.7127    3.1526    2.0252 H   0  0  0  0  0  0  0  0  0  0  0  0
   -3.0624    4.5610    1.2146 H   0  0  0  0  0  0  0  0  0  0  0  0
   -3.4780    4.6258   -0.5069 H   0  0  0  0  0  0  0  0  0  0  0  0
   -4.7080    4.9235    0.7107 H   0  0  0  0  0  0  0  0  0  0  0  0
   -1.0444    2.8854    2.7925 H   0  0  0  0  0  0  0  0  0  0  0  0
  1  2  2  0  0  0  0
  2  3  1  0  0  0  0
  3  4  1  0  0  0  0
  4  5  4  0  0  0  0
  5  6  4  0  0  0  0
  6  7  1  0  0  0  0
  7  8  1  0  0  0  0
  6  9  4  0  0  0  0
  9 10  1  0  0  0  0
 10 11  1  0  0  0  0
  9 12  4  0  0  0  0
  4 13  4  0  0  0  0
 12 13  4  0  0  0  0
  3 14  1  0  0  0  0
 14 15  1  0  0  0  0
 15 16  1  0  0  0  0
 16 17  4  0  0  0  0
 17 18  1  0  0  0  0
 18 19  1  0  0  0  0
 19 20  1  0  0  0  0
 20 21  4  0  0  0  0
 21 22  4  0  0  0  0
 22 23  4  0  0  0  0
 23 24  1  0  0  0  0
 24 25  1  0  0  0  0
 23 26  4  0  0  0  0
 26 27  1  0  0  0  0
 27 28  1  0  0  0  0
 20 29  4  0  0  0  0
 26 29  4  0  0  0  0
 17 30  1  0  0  0  0
  3 31  1  0  0  0  0
 31 32  1  0  0  0  0
 31 33  1  0  0  0  0
  5 34  1  0  0  0  0
  8 35  1  0  0  0  0
  8 36  1  0  0  0  0
  8 37  1  0  0  0  0
 11 38  1  0  0  0  0
 11 39  1  0  0  0  0
 11 40  1  0  0  0  0
 12 41  1  0  0  0  0
 13 42  1  0  0  0  0
 14 43  1  0  0  0  0
 14 44  1  0  0  0  0
 15 45  1  0  0  0  0
 15 46  1  0  0  0  0
  2 47  1  0  0  0  0
 16 48  1  0  0  0  0
 18 49  1  0  0  0  0
 18 50  1  0  0  0  0
 19 51  1  0  0  0  0
 19 52  1  0  0  0  0
 21 53  1  0  0  0  0
 22 54  1  0  0  0  0
 25 55  1  0  0  0  0
 25 56  1  0  0  0  0
 25 57  1  0  0  0  0
 28 58  1  0  0  0  0
 28 59  1  0  0  0  0
 28 60  1  0  0  0  0
 29 61  1  0  0  0  0
 30 62  1  0  0  0  0
 30 63  1  0  0  0  0
 30 64  1  0  0  0  0
 31 65  1  0  0  0  0
 32 66  1  0  0  0  0
 32 67  1  0  0  0  0
 32 68  1  0  0  0  0
 33 69  1  0  0  0  0
 33 70  1  0  0  0  0
 33 71  1  0  0  0  0
  1 72  1  0  0  0  0
M  CHG  1   1   1
M  END
