 xtb: 6.6.1 (8d0f1dd)
          06052419583D

 25 26  0     0  0            999 V2000
    3.1109    1.2188    0.0781 C   0  0  0  0  0  0  0  0  0  0  0  0
    2.1771    0.1273    0.0449 N   0  0  0  0  0  0  0  0  0  0  0  0
    2.5047   -1.1834    0.0455 C   0  0  0  0  0  0  0  0  0  0  0  0
    1.3731   -1.9364    0.0231 N   0  0  0  0  0  0  0  0  0  0  0  0
    0.3043   -1.0936    0.0115 C   0  0  0  0  0  0  0  0  0  0  0  0
    0.8004    0.2185    0.0274 C   0  0  0  0  0  0  0  0  0  0  0  0
   -0.0858    1.2908    0.0139 C   0  0  0  0  0  0  0  0  0  0  0  0
    0.3202    2.5694   -0.0409 O   0  0  0  0  0  0  0  0  0  0  0  0
   -1.4387    0.9984    0.0269 N   0  0  0  0  0  0  0  0  0  0  0  0
   -2.3654    1.9837    0.0847 C   0  0  0  0  0  0  0  0  0  0  0  0
   -1.9493   -0.3351   -0.0638 C   0  0  0  0  0  0  0  0  0  0  0  0
   -3.1344   -0.5373   -0.1367 O   0  0  0  0  0  0  0  0  0  0  0  0
   -1.0226   -1.3696   -0.0452 N   0  0  0  0  0  0  0  0  0  0  0  0
   -1.4999   -2.7363   -0.0986 C   0  0  0  0  0  0  0  0  0  0  0  0
    3.6606    1.2210    1.0208 H   0  0  0  0  0  0  0  0  0  0  0  0
    3.8248    1.1304   -0.7416 H   0  0  0  0  0  0  0  0  0  0  0  0
    2.5668    2.1545   -0.0174 H   0  0  0  0  0  0  0  0  0  0  0  0
    3.5016   -1.5684    0.0525 H   0  0  0  0  0  0  0  0  0  0  0  0
   -0.4382    3.1438   -0.2389 H   0  0  0  0  0  0  0  0  0  0  0  0
   -3.3857    1.7105   -0.0700 H   0  0  0  0  0  0  0  0  0  0  0  0
   -2.1104    2.9803    0.3804 H   0  0  0  0  0  0  0  0  0  0  0  0
   -1.1715   -3.2864    0.7835 H   0  0  0  0  0  0  0  0  0  0  0  0
   -1.1398   -3.2292   -1.0022 H   0  0  0  0  0  0  0  0  0  0  0  0
   -2.5881   -2.7097   -0.1183 H   0  0  0  0  0  0  0  0  0  0  0  0
    1.3458   -2.9439    0.0115 H   0  0  0  0  0  0  0  0  0  0  0  0
  1  2  1  0  0  0  0
  2  3  4  0  0  0  0
  3  4  4  0  0  0  0
  4  5  1  0  0  0  0
  2  6  1  0  0  0  0
  5  6  4  0  0  0  0
  6  7  4  0  0  0  0
  7  8  1  0  0  0  0
  7  9  1  0  0  0  0
  9 10  4  0  0  0  0
  9 11  1  0  0  0  0
 11 12  2  0  0  0  0
  5 13  1  0  0  0  0
 11 13  1  0  0  0  0
 13 14  1  0  0  0  0
  1 15  1  0  0  0  0
  1 16  1  0  0  0  0
  1 17  1  0  0  0  0
  3 18  1  0  0  0  0
  8 19  1  0  0  0  0
 10 20  1  0  0  0  0
 10 21  1  0  0  0  0
 14 22  1  0  0  0  0
 14 23  1  0  0  0  0
 14 24  1  0  0  0  0
  4 25  1  0  0  0  0
M  CHG  1   1   1
M  END
