 xtb: 6.6.1 (8d0f1dd)
          04062411163D

 72 73  0     0  0            999 V2000
   -0.5608    2.3844    1.6991 N   0  0  0  0  0  0  0  0  0  0  0  0
   -1.8090    2.2621    1.6317 C   0  0  0  0  0  0  0  0  0  0  0  0
   -2.5162    1.9053    0.3515 C   0  0  0  0  0  0  0  0  0  0  0  0
   -3.2014    0.5555    0.4817 C   0  0  0  0  0  0  0  0  0  0  0  0
   -4.0331    0.1032   -0.5459 C   0  0  0  0  0  0  0  0  0  0  0  0
   -4.6629   -1.1278   -0.4809 C   0  0  0  0  0  0  0  0  0  0  0  0
   -5.4778   -1.6381   -1.4276 O   0  0  0  0  0  0  0  0  0  0  0  0
   -5.7863   -0.8633   -2.5622 C   0  0  0  0  0  0  0  0  0  0  0  0
   -4.4597   -1.9584    0.6545 C   0  0  0  0  0  0  0  0  0  0  0  0
   -5.1146   -3.1372    0.6354 O   0  0  0  0  0  0  0  0  0  0  0  0
   -5.0271   -3.9885    1.7538 C   0  0  0  0  0  0  0  0  0  0  0  0
   -3.6212   -1.5118    1.6628 C   0  0  0  0  0  0  0  0  0  0  0  0
   -2.9976   -0.2730    1.5736 C   0  0  0  0  0  0  0  0  0  0  0  0
   -1.5432    1.8905   -0.8570 C   0  0  0  0  0  0  0  0  0  0  0  0
   -0.8457    0.5616   -1.1593 C   0  0  0  0  0  0  0  0  0  0  0  0
    0.2520    0.2293   -0.1408 C   0  0  0  0  0  0  0  0  0  0  0  0
    0.7341   -1.1260   -0.2919 N   0  0  0  0  0  0  0  0  0  0  0  0
    1.6752   -1.4790   -1.1403 C   0  0  0  0  0  0  0  0  0  0  0  0
    2.4440   -0.5544   -2.0060 C   0  0  0  0  0  0  0  0  0  0  0  0
    3.7131   -0.1342   -1.2819 C   0  0  0  0  0  0  0  0  0  0  0  0
    3.8876    1.1664   -0.8447 C   0  0  0  0  0  0  0  0  0  0  0  0
    5.0598    1.5434   -0.2040 C   0  0  0  0  0  0  0  0  0  0  0  0
    6.0718    0.6231    0.0228 C   0  0  0  0  0  0  0  0  0  0  0  0
    7.2486    0.8807    0.6224 O   0  0  0  0  0  0  0  0  0  0  0  0
    7.5378    2.1978    1.0320 C   0  0  0  0  0  0  0  0  0  0  0  0
    5.8911   -0.7205   -0.4093 C   0  0  0  0  0  0  0  0  0  0  0  0
    6.9190   -1.5515   -0.1477 O   0  0  0  0  0  0  0  0  0  0  0  0
    6.8397   -2.8953   -0.5604 C   0  0  0  0  0  0  0  0  0  0  0  0
    4.7171   -1.0735   -1.0538 C   0  0  0  0  0  0  0  0  0  0  0  0
    0.0924   -2.0961    0.5565 C   0  0  0  0  0  0  0  0  0  0  0  0
   -3.5965    3.0145    0.1226 C   0  0  0  0  0  0  0  0  0  0  0  0
   -4.7153    2.9793    1.1648 C   0  0  0  0  0  0  0  0  0  0  0  0
   -2.9745    4.4094    0.0809 C   0  0  0  0  0  0  0  0  0  0  0  0
   -4.1897    0.7280   -1.4089 H   0  0  0  0  0  0  0  0  0  0  0  0
   -6.2735    0.0767   -2.2862 H   0  0  0  0  0  0  0  0  0  0  0  0
   -6.4760   -1.4672   -3.1486 H   0  0  0  0  0  0  0  0  0  0  0  0
   -4.8937   -0.6523   -3.1602 H   0  0  0  0  0  0  0  0  0  0  0  0
   -5.4008   -3.5005    2.6589 H   0  0  0  0  0  0  0  0  0  0  0  0
   -5.6572   -4.8441    1.5191 H   0  0  0  0  0  0  0  0  0  0  0  0
   -4.0005   -4.3304    1.9203 H   0  0  0  0  0  0  0  0  0  0  0  0
   -3.4491   -2.1197    2.5364 H   0  0  0  0  0  0  0  0  0  0  0  0
   -2.3521    0.0353    2.3817 H   0  0  0  0  0  0  0  0  0  0  0  0
   -2.1073    2.1687   -1.7481 H   0  0  0  0  0  0  0  0  0  0  0  0
   -0.7824    2.6500   -0.6832 H   0  0  0  0  0  0  0  0  0  0  0  0
   -1.5767   -0.2484   -1.1788 H   0  0  0  0  0  0  0  0  0  0  0  0
   -0.4097    0.6279   -2.1591 H   0  0  0  0  0  0  0  0  0  0  0  0
   -2.4830    2.4233    2.4792 H   0  0  0  0  0  0  0  0  0  0  0  0
    1.0790    0.9320   -0.2374 H   0  0  0  0  0  0  0  0  0  0  0  0
    1.9618   -2.5202   -1.1382 H   0  0  0  0  0  0  0  0  0  0  0  0
   -0.1595    0.3319    0.8605 H   0  0  0  0  0  0  0  0  0  0  0  0
    1.8697    0.3310   -2.2700 H   0  0  0  0  0  0  0  0  0  0  0  0
    2.7207   -1.0781   -2.9237 H   0  0  0  0  0  0  0  0  0  0  0  0
    3.1288    1.9132   -1.0222 H   0  0  0  0  0  0  0  0  0  0  0  0
    5.1759    2.5681    0.1085 H   0  0  0  0  0  0  0  0  0  0  0  0
    6.8355    2.5436    1.7965 H   0  0  0  0  0  0  0  0  0  0  0  0
    7.5282    2.8909    0.1855 H   0  0  0  0  0  0  0  0  0  0  0  0
    8.5400    2.1583    1.4544 H   0  0  0  0  0  0  0  0  0  0  0  0
    7.7767   -3.3524   -0.2487 H   0  0  0  0  0  0  0  0  0  0  0  0
    6.0061   -3.4147   -0.0767 H   0  0  0  0  0  0  0  0  0  0  0  0
    6.7420   -2.9765   -1.6473 H   0  0  0  0  0  0  0  0  0  0  0  0
    4.5792   -2.0832   -1.4059 H   0  0  0  0  0  0  0  0  0  0  0  0
    0.3508   -3.1094    0.2581 H   0  0  0  0  0  0  0  0  0  0  0  0
   -0.9908   -1.9722    0.5049 H   0  0  0  0  0  0  0  0  0  0  0  0
    0.4029   -1.9440    1.5933 H   0  0  0  0  0  0  0  0  0  0  0  0
   -4.0524    2.8215   -0.8532 H   0  0  0  0  0  0  0  0  0  0  0  0
   -4.3832    3.3716    2.1225 H   0  0  0  0  0  0  0  0  0  0  0  0
   -5.0887    1.9686    1.3124 H   0  0  0  0  0  0  0  0  0  0  0  0
   -5.5412    3.6008    0.8275 H   0  0  0  0  0  0  0  0  0  0  0  0
   -2.4499    4.6311    1.0074 H   0  0  0  0  0  0  0  0  0  0  0  0
   -2.2730    4.5106   -0.7422 H   0  0  0  0  0  0  0  0  0  0  0  0
   -3.7578    5.1521   -0.0499 H   0  0  0  0  0  0  0  0  0  0  0  0
   -0.1831    2.6645    2.6002 H   0  0  0  0  0  0  0  0  0  0  0  0
  1  2  2  0  0  0  0
  2  3  1  0  0  0  0
  3  4  1  0  0  0  0
  4  5  4  0  0  0  0
  5  6  4  0  0  0  0
  6  7  1  0  0  0  0
  7  8  1  0  0  0  0
  6  9  4  0  0  0  0
  9 10  1  0  0  0  0
 10 11  1  0  0  0  0
  9 12  4  0  0  0  0
  4 13  4  0  0  0  0
 12 13  4  0  0  0  0
  3 14  1  0  0  0  0
 14 15  1  0  0  0  0
 15 16  1  0  0  0  0
 16 17  1  0  0  0  0
 17 18  4  0  0  0  0
 18 19  1  0  0  0  0
 19 20  1  0  0  0  0
 20 21  4  0  0  0  0
 21 22  4  0  0  0  0
 22 23  4  0  0  0  0
 23 24  1  0  0  0  0
 24 25  1  0  0  0  0
 23 26  4  0  0  0  0
 26 27  1  0  0  0  0
 27 28  1  0  0  0  0
 20 29  4  0  0  0  0
 26 29  4  0  0  0  0
 17 30  1  0  0  0  0
  3 31  1  0  0  0  0
 31 32  1  0  0  0  0
 31 33  1  0  0  0  0
  5 34  1  0  0  0  0
  8 35  1  0  0  0  0
  8 36  1  0  0  0  0
  8 37  1  0  0  0  0
 11 38  1  0  0  0  0
 11 39  1  0  0  0  0
 11 40  1  0  0  0  0
 12 41  1  0  0  0  0
 13 42  1  0  0  0  0
 14 43  1  0  0  0  0
 14 44  1  0  0  0  0
 15 45  1  0  0  0  0
 15 46  1  0  0  0  0
  2 47  1  0  0  0  0
 16 48  1  0  0  0  0
 18 49  1  0  0  0  0
 16 50  1  0  0  0  0
 19 51  1  0  0  0  0
 19 52  1  0  0  0  0
 21 53  1  0  0  0  0
 22 54  1  0  0  0  0
 25 55  1  0  0  0  0
 25 56  1  0  0  0  0
 25 57  1  0  0  0  0
 28 58  1  0  0  0  0
 28 59  1  0  0  0  0
 28 60  1  0  0  0  0
 29 61  1  0  0  0  0
 30 62  1  0  0  0  0
 30 63  1  0  0  0  0
 30 64  1  0  0  0  0
 31 65  1  0  0  0  0
 32 66  1  0  0  0  0
 32 67  1  0  0  0  0
 32 68  1  0  0  0  0
 33 69  1  0  0  0  0
 33 70  1  0  0  0  0
 33 71  1  0  0  0  0
  1 72  1  0  0  0  0
M  CHG  1   1   1
M  END
