          24
 
C              3.22700633        1.15073726        0.00276778
N              2.28396896        0.06379063       -0.00879557
C              2.57036715       -1.23338650       -0.01811933
N              1.43225700       -1.95857868       -0.01716200
C              0.37534884       -1.08245984       -0.00779635
C              0.91686237        0.19758815       -0.00366467
C              0.09399016        1.38763054        0.00582905
O              0.49921860        2.52799358        0.01735782
N             -1.26517862        1.06099439       -0.00100863
C             -2.21529166        2.16853863       -0.01381311
C             -1.84295900       -0.18129604       -0.00894493
O             -3.02624166       -0.36364703       -0.02693864
N             -0.95538373       -1.33310264        0.00692666
C             -1.51236250       -2.55493999        0.03437935
H              3.86116128        1.09052981        0.88726117
H              3.85843806        1.11389647       -0.88486392
H              2.67612061        2.09072923        0.01595373
H              3.55793054       -1.65134021       -0.02709896
H             -1.64818748        3.09599786       -0.01365450
H             -2.84082863        2.10713123       -0.90313402
H             -2.85555448        2.11670834        0.86542189
H             -0.89636249       -3.43309918        0.04727713
H             -2.59006194       -2.62640205        0.07831508
H              1.38653974       -2.96716396       -0.02570790
