 xtb: 6.6.1 (8d0f1dd)
          06052419583D

 25 25  0     0  0            999 V2000
    3.5369    0.7654    0.3357 C   0  0  0  0  0  0  0  0  0  0  0  0
    2.5762   -0.2873    0.1695 N   0  0  0  0  0  0  0  0  0  0  0  0
    2.5542   -1.4519    0.7667 C   0  0  0  0  0  0  0  0  0  0  0  0
    1.4948   -2.1678    0.4108 N   0  0  0  0  0  0  0  0  0  0  0  0
    0.6838   -1.4326   -0.5108 C   0  0  0  0  0  0  0  0  0  0  0  0
    1.4478   -0.1839   -0.6624 C   0  0  0  0  0  0  0  0  0  0  0  0
    1.0936    0.8845   -1.3570 C   0  0  0  0  0  0  0  0  0  0  0  0
    0.7706    1.7701   -2.0069 O   0  0  0  0  0  0  0  0  0  0  0  0
   -2.5335    2.3940    0.6449 N   0  0  0  0  0  0  0  0  0  0  0  0
   -3.9198    2.6011    0.5228 C   0  0  0  0  0  0  0  0  0  0  0  0
   -1.5516    1.7559    0.7495 C   0  0  0  0  0  0  0  0  0  0  0  0
   -0.4865    1.2795    0.8367 O   0  0  0  0  0  0  0  0  0  0  0  0
   -0.3881   -1.7275   -1.0721 N   0  0  0  0  0  0  0  0  0  0  0  0
   -1.1313   -2.9334   -0.9212 C   0  0  0  0  0  0  0  0  0  0  0  0
    3.0452    1.6568    0.7305 H   0  0  0  0  0  0  0  0  0  0  0  0
    4.3130    0.4482    1.0295 H   0  0  0  0  0  0  0  0  0  0  0  0
    3.9942    1.0157   -0.6230 H   0  0  0  0  0  0  0  0  0  0  0  0
    3.3103   -1.7833    1.4587 H   0  0  0  0  0  0  0  0  0  0  0  0
   -4.0807    3.6523    0.2866 H   0  0  0  0  0  0  0  0  0  0  0  0
   -4.3316    1.9847   -0.2782 H   0  0  0  0  0  0  0  0  0  0  0  0
   -4.4218    2.3643    1.4624 H   0  0  0  0  0  0  0  0  0  0  0  0
   -0.6042   -3.7494   -0.4173 H   0  0  0  0  0  0  0  0  0  0  0  0
   -1.4340   -3.2545   -1.9181 H   0  0  0  0  0  0  0  0  0  0  0  0
   -2.0418   -2.6975   -0.3662 H   0  0  0  0  0  0  0  0  0  0  0  0
    1.2648   -3.0852    0.7601 H   0  0  0  0  0  0  0  0  0  0  0  0
  1  2  1  0  0  0  0
  2  3  4  0  0  0  0
  3  4  4  0  0  0  0
  4  5  1  0  0  0  0
  2  6  1  0  0  0  0
  5  6  1  0  0  0  0
  6  7  2  0  0  0  0
  7  8  2  0  0  0  0
  9 10  1  0  0  0  0
  9 11  2  0  0  0  0
  9 12  1  0  0  0  0
 11 12  2  0  0  0  0
  5 13  2  0  0  0  0
 13 14  1  0  0  0  0
  1 15  1  0  0  0  0
  1 16  1  0  0  0  0
  1 17  1  0  0  0  0
  3 18  1  0  0  0  0
 10 19  1  0  0  0  0
 10 20  1  0  0  0  0
 10 21  1  0  0  0  0
 14 22  1  0  0  0  0
 14 23  1  0  0  0  0
 14 24  1  0  0  0  0
  4 25  1  0  0  0  0
M  CHG  1   1   1
M  END
