 xtb: 6.6.1 (8d0f1dd)
          06052419583D

 25 25  0     0  0            999 V2000
    2.8761    1.2363   -0.2522 C   0  0  0  0  0  0  0  0  0  0  0  0
    2.1850   -0.0196   -0.1637 N   0  0  0  0  0  0  0  0  0  0  0  0
    2.7561   -1.2113   -0.2738 C   0  0  0  0  0  0  0  0  0  0  0  0
    1.8289   -2.1677   -0.1580 N   0  0  0  0  0  0  0  0  0  0  0  0
    0.5765   -1.6064    0.0638 C   0  0  0  0  0  0  0  0  0  0  0  0
    0.8065   -0.1801   -0.0055 C   0  0  0  0  0  0  0  0  0  0  0  0
    0.0006    0.9732    0.1971 C   0  0  0  0  0  0  0  0  0  0  0  0
    0.3304    2.0392    0.6652 O   0  0  0  0  0  0  0  0  0  0  0  0
   -1.4295    0.9156   -0.3530 N   0  0  0  0  0  0  0  0  0  0  0  0
   -2.4339    1.5841    0.4748 C   0  0  0  0  0  0  0  0  0  0  0  0
   -1.5506    0.7825   -1.6028 C   0  0  0  0  0  0  0  0  0  0  0  0
   -1.3884    0.5028   -2.7155 O   0  0  0  0  0  0  0  0  0  0  0  0
   -0.3881   -2.3994    0.3637 N   0  0  0  0  0  0  0  0  0  0  0  0
   -1.7108   -2.0572    0.7169 C   0  0  0  0  0  0  0  0  0  0  0  0
    2.7048    1.8257    0.6497 H   0  0  0  0  0  0  0  0  0  0  0  0
    3.9411    1.0531   -0.3729 H   0  0  0  0  0  0  0  0  0  0  0  0
    2.5113    1.8135   -1.1037 H   0  0  0  0  0  0  0  0  0  0  0  0
    3.8024   -1.3806   -0.4380 H   0  0  0  0  0  0  0  0  0  0  0  0
   -2.0621    2.5676    0.7644 H   0  0  0  0  0  0  0  0  0  0  0  0
   -3.3637    1.6889   -0.0778 H   0  0  0  0  0  0  0  0  0  0  0  0
   -2.6010    0.9915    1.3727 H   0  0  0  0  0  0  0  0  0  0  0  0
   -2.1361   -2.9150    1.2417 H   0  0  0  0  0  0  0  0  0  0  0  0
   -2.3220   -1.8721   -0.1733 H   0  0  0  0  0  0  0  0  0  0  0  0
   -1.7550   -1.1811    1.3741 H   0  0  0  0  0  0  0  0  0  0  0  0
    1.9819   -3.1652   -0.1628 H   0  0  0  0  0  0  0  0  0  0  0  0
  1  2  1  0  0  0  0
  2  3  4  0  0  0  0
  3  4  4  0  0  0  0
  4  5  1  0  0  0  0
  2  6  1  0  0  0  0
  5  6  1  0  0  0  0
  6  7  1  0  0  0  0
  7  8  2  0  0  0  0
  7  9  1  0  0  0  0
  9 10  1  0  0  0  0
  9 11  2  0  0  0  0
 11 12  2  0  0  0  0
  5 13  2  0  0  0  0
 13 14  1  0  0  0  0
  1 15  1  0  0  0  0
  1 16  1  0  0  0  0
  1 17  1  0  0  0  0
  3 18  1  0  0  0  0
 10 19  1  0  0  0  0
 10 20  1  0  0  0  0
 10 21  1  0  0  0  0
 14 22  1  0  0  0  0
 14 23  1  0  0  0  0
 14 24  1  0  0  0  0
  4 25  1  0  0  0  0
M  CHG  1   1   1
M  END
