          24
 
C              3.24624681        1.12794812        0.01109778
N              2.26457328        0.08208937       -0.00090257
C              2.48647945       -1.25412426       -0.00419982
N              1.37865455       -1.96094977       -0.00361938
C              0.37292374       -1.05911092        0.00113171
C              0.91267489        0.23780727        0.00384468
C              0.07599856        1.41293847       -0.00213539
O              0.46535834        2.55978815       -0.01172830
N             -1.27732253        1.07983518        0.00177117
C             -2.23697572        2.16934916        0.00057849
C             -1.83286007       -0.19444602        0.00296246
O             -3.02492832       -0.35466575        0.00448165
N             -0.95285592       -1.28379326        0.00154946
C             -1.49190969       -2.62271887       -0.00296472
H              3.77762754        1.13781064        0.96548555
H              3.97205241        0.97193173       -0.78795657
H              2.74682742        2.08681872       -0.12642053
H              3.46808155       -1.68852494       -0.00777826
H             -1.68745463        3.10922994        0.00646038
H             -2.87193973        2.10701501       -0.88485912
H             -2.88083011        2.09999990        0.87896406
H             -1.14038143       -3.16569484        0.87553369
H             -1.16114167       -3.15203874       -0.89783061
H             -2.57924039       -2.55415364        0.00942476
