          23
 
C              3.52302744        0.68186561       -0.10951952
N              2.43044452       -0.25076694       -0.04090579
C              2.56788572       -1.57447810       -0.05121379
N              1.36428177       -2.15806797        0.04994639
C              0.37798033       -1.16570118        0.13127326
C              1.10060045        0.05897454        0.07226031
C              0.54208167        1.41564916        0.08015838
O              1.26434005        2.41643787       -0.03539870
N             -0.77484440        1.43414682        0.21076685
C             -1.56722965        2.58260505        0.24489441
N             -0.89098584       -1.32348860        0.23229194
C             -1.60462570       -2.53707743        0.28748013
H              4.05103033        0.71586970        0.84585537
H              4.22212464        0.38494357       -0.89021390
H              3.12667873        1.67715082       -0.31960995
H              3.50418892       -2.09329673       -0.13223493
H             -0.96983686        3.50555526        0.25459856
H             -2.22914830        2.59630209       -0.62982896
H             -2.20445913        2.55125906        1.13561129
H             -1.30505366       -3.15631416        1.14254497
H             -1.48713515       -3.12169393       -0.63312367
H             -2.66291201       -2.28399244        0.38957743
H              1.19904023       -3.15356190        0.05696564
