 xtb: 6.6.1 (8d0f1dd)
          06052419583D

 25 25  0     0  0            999 V2000
    3.2435    1.1139    0.0581 C   0  0  0  0  0  0  0  0  0  0  0  0
    2.3073    0.0245    0.0133 N   0  0  0  0  0  0  0  0  0  0  0  0
    2.6013   -1.2808    0.0339 C   0  0  0  0  0  0  0  0  0  0  0  0
    1.4554   -2.0097   -0.0001 N   0  0  0  0  0  0  0  0  0  0  0  0
    0.4043   -1.1410   -0.0438 C   0  0  0  0  0  0  0  0  0  0  0  0
    0.9342    0.1469   -0.0369 C   0  0  0  0  0  0  0  0  0  0  0  0
    0.1152    1.3149   -0.0897 C   0  0  0  0  0  0  0  0  0  0  0  0
    0.4688    2.4768   -0.0911 O   0  0  0  0  0  0  0  0  0  0  0  0
   -1.2841    0.9735   -0.1533 N   0  0  0  0  0  0  0  0  0  0  0  0
   -2.1572    1.9907   -0.2272 C   0  0  0  0  0  0  0  0  0  0  0  0
   -1.8260   -0.3393   -0.1414 C   0  0  0  0  0  0  0  0  0  0  0  0
   -3.0147   -0.5237   -0.1794 O   0  0  0  0  0  0  0  0  0  0  0  0
   -0.9213   -1.3982   -0.0823 N   0  0  0  0  0  0  0  0  0  0  0  0
   -1.4351   -2.7535   -0.0766 C   0  0  0  0  0  0  0  0  0  0  0  0
    3.7447    1.1441    1.0271 H   0  0  0  0  0  0  0  0  0  0  0  0
    3.9956    0.9999   -0.7223 H   0  0  0  0  0  0  0  0  0  0  0  0
    2.7017    2.0475   -0.0888 H   0  0  0  0  0  0  0  0  0  0  0  0
    3.5888   -1.6930    0.0715 H   0  0  0  0  0  0  0  0  0  0  0  0
   -1.7626    2.9907   -0.2328 H   0  0  0  0  0  0  0  0  0  0  0  0
   -3.2063    1.7706   -0.2802 H   0  0  0  0  0  0  0  0  0  0  0  0
   -3.4637    4.2487    1.4977 H   0  0  0  0  0  0  0  0  0  0  0  0
   -1.0955   -3.2845    0.8130 H   0  0  0  0  0  0  0  0  0  0  0  0
   -1.1202   -3.2867   -0.9747 H   0  0  0  0  0  0  0  0  0  0  0  0
   -2.5228   -2.6961   -0.0629 H   0  0  0  0  0  0  0  0  0  0  0  0
    1.4090   -3.0179   -0.0002 H   0  0  0  0  0  0  0  0  0  0  0  0
  1  2  1  0  0  0  0
  2  3  4  0  0  0  0
  3  4  4  0  0  0  0
  4  5  1  0  0  0  0
  2  6  1  0  0  0  0
  5  6  4  0  0  0  0
  6  7  1  0  0  0  0
  7  8  2  0  0  0  0
  7  9  1  0  0  0  0
  9 10  4  0  0  0  0
  9 11  1  0  0  0  0
 11 12  2  0  0  0  0
  5 13  1  0  0  0  0
 11 13  1  0  0  0  0
 13 14  1  0  0  0  0
  1 15  1  0  0  0  0
  1 16  1  0  0  0  0
  1 17  1  0  0  0  0
  3 18  1  0  0  0  0
 10 19  1  0  0  0  0
 10 20  1  0  0  0  0
 14 22  1  0  0  0  0
 14 23  1  0  0  0  0
 14 24  1  0  0  0  0
  4 25  1  0  0  0  0
M  CHG  1   1   1
M  END
