          67
 
N             -1.64237570        2.75698900        2.36694772
C             -1.66110108        1.99083153        1.38140139
C             -2.82064681        1.85800175        0.43131530
C             -3.31339752        0.41817920        0.43969224
C             -4.21579595       -0.01904413       -0.53136391
C             -4.73530152       -1.30376637       -0.51142259
O             -5.62138239       -1.80003113       -1.39625958
C             -6.14525594       -0.96200583       -2.39933797
C             -4.33520976       -2.20604163        0.51360427
O             -4.89427493       -3.42778182        0.46009714
C             -4.62907015       -4.35266791        1.48994481
C             -3.43288367       -1.76606890        1.47061557
C             -2.93532360       -0.47169792        1.43568446
C             -2.27173654        2.23649056       -0.96902298
C             -1.27707441        1.22119653       -1.54738627
C              0.08222878        1.34142890       -0.97387682
N              0.92837055        0.35595414       -0.81518158
C              2.29254068        0.60004883       -0.40787687
C              3.23087528        0.70160793       -1.62947669
C              4.64191740        0.43331272       -1.20031008
C              5.58700929        1.42573054       -0.99573599
C              6.85944609        1.14119036       -0.53157560
C              7.24263642       -0.17865450       -0.22932791
O              8.43548734       -0.55973974        0.24572262
C              9.44750149        0.39995981        0.44818257
C              6.26185322       -1.11370899       -0.46616696
C              5.02391077       -0.89465226       -0.93339518
C              0.58218130       -1.01836614       -1.09297557
C             -4.02711220        2.77744671        0.78788686
C             -4.62931279        2.40847969        2.14148943
C             -3.68468710        4.26479789        0.76646717
H             -4.53380835        0.66047608       -1.30464615
H             -6.65229222       -0.09210978       -1.97118585
H             -6.86878978       -1.57015635       -2.93867251
H             -5.36608435       -0.62938462       -3.09274772
H             -4.92858272       -3.95986668        2.46601083
H             -5.22735240       -5.23074045        1.25477191
H             -3.57133484       -4.63176389        1.51670880
H             -3.11877492       -2.42353099        2.26462722
H             -2.26408565       -0.15843977        2.21988816
H             -3.11225464        2.33009582       -1.65565734
H             -1.79172295        3.21328758       -0.90527672
H             -1.67269344        0.21084449       -1.43660204
H             -1.19037816        1.41685230       -2.62429964
H             -0.80443190        1.36025040        1.08084459
H              0.44660121        2.33795687       -0.76327274
H              2.61986903       -0.24866681        0.20532438
H              2.34942169        1.51899389        0.17855635
H              3.14813289        1.68721405       -2.09030421
H              2.93445905       -0.05118685       -2.36094397
H              5.33114576        2.45504338       -1.20349664
H              7.56823880        1.94275456       -0.39257392
H              9.14165434        1.16262234        1.17100969
H              9.73623683        0.88004098       -0.49250297
H             10.29685099       -0.15227414        0.84532824
H              4.30121708       -1.69203269       -1.04153939
H              0.50047369       -1.19113470       -2.16726585
H             -0.37095425       -1.27240207       -0.62823515
H              1.35652454       -1.66673239       -0.67752021
H             -4.78895658        2.59412406        0.02106095
H             -3.90980756        2.59356336        2.93294543
H             -4.92584138        1.36269744        2.16945462
H             -5.50991833        3.01782995        2.32665907
H             -2.88390715        4.47659441        1.46808666
H             -3.39604243        4.60302280       -0.22513297
H             -4.55963798        4.83458215        1.06798793
H             -0.80009735        2.79006410        2.93232420
