 xtb: 6.6.1 (8d0f1dd)
          06052419593D

 25 25  0     0  0            999 V2000
    3.2822    1.0961    0.0001 C   0  0  0  0  0  0  0  0  0  0  0  0
    2.3312    0.0172   -0.0090 N   0  0  0  0  0  0  0  0  0  0  0  0
    2.5998   -1.2852   -0.0401 C   0  0  0  0  0  0  0  0  0  0  0  0
    1.4457   -1.9928   -0.0131 N   0  0  0  0  0  0  0  0  0  0  0  0
    0.4093   -1.1094    0.0392 C   0  0  0  0  0  0  0  0  0  0  0  0
    0.9618    0.1658    0.0424 C   0  0  0  0  0  0  0  0  0  0  0  0
    0.1621    1.3516    0.0730 C   0  0  0  0  0  0  0  0  0  0  0  0
    0.5387    2.5021    0.0330 O   0  0  0  0  0  0  0  0  0  0  0  0
   -1.2384    1.0348    0.1668 N   0  0  0  0  0  0  0  0  0  0  0  0
   -2.0945    2.0636    0.2479 C   0  0  0  0  0  0  0  0  0  0  0  0
   -1.8047   -0.2713    0.1582 C   0  0  0  0  0  0  0  0  0  0  0  0
   -2.9916   -0.4373    0.2158 O   0  0  0  0  0  0  0  0  0  0  0  0
   -0.9180   -1.3440    0.0755 N   0  0  0  0  0  0  0  0  0  0  0  0
   -1.4507   -2.6938    0.0451 C   0  0  0  0  0  0  0  0  0  0  0  0
    3.7743    1.1590    0.9721 H   0  0  0  0  0  0  0  0  0  0  0  0
    4.0385    0.9405   -0.7678 H   0  0  0  0  0  0  0  0  0  0  0  0
    2.7532    2.0304   -0.1849 H   0  0  0  0  0  0  0  0  0  0  0  0
    3.5802   -1.7158   -0.0811 H   0  0  0  0  0  0  0  0  0  0  0  0
   -1.6818    3.0568    0.2360 H   0  0  0  0  0  0  0  0  0  0  0  0
   -3.9772    3.4711   -1.5784 H   0  0  0  0  0  0  0  0  0  0  0  0
   -3.1462    1.8583    0.3206 H   0  0  0  0  0  0  0  0  0  0  0  0
   -1.1236   -3.2533    0.9219 H   0  0  0  0  0  0  0  0  0  0  0  0
   -1.1371   -3.2027   -0.8664 H   0  0  0  0  0  0  0  0  0  0  0  0
   -2.5371   -2.6225    0.0566 H   0  0  0  0  0  0  0  0  0  0  0  0
    1.3843   -3.0006   -0.0322 H   0  0  0  0  0  0  0  0  0  0  0  0
  1  2  1  0  0  0  0
  2  3  4  0  0  0  0
  3  4  4  0  0  0  0
  4  5  1  0  0  0  0
  2  6  1  0  0  0  0
  5  6  4  0  0  0  0
  6  7  1  0  0  0  0
  7  8  2  0  0  0  0
  7  9  1  0  0  0  0
  9 10  4  0  0  0  0
  9 11  1  0  0  0  0
 11 12  2  0  0  0  0
  5 13  1  0  0  0  0
 11 13  1  0  0  0  0
 13 14  1  0  0  0  0
  1 15  1  0  0  0  0
  1 16  1  0  0  0  0
  1 17  1  0  0  0  0
  3 18  1  0  0  0  0
 10 19  1  0  0  0  0
 10 21  1  0  0  0  0
 14 22  1  0  0  0  0
 14 23  1  0  0  0  0
 14 24  1  0  0  0  0
  4 25  1  0  0  0  0
M  CHG  1   1   1
M  END
