 xtb: 6.6.1 (8d0f1dd)
          06052420003D

 25 25  0     0  0            999 V2000
    2.9485    1.1848    0.0076 C   0  0  0  0  0  0  0  0  0  0  0  0
    2.1685   -0.0236   -0.0108 N   0  0  0  0  0  0  0  0  0  0  0  0
    2.6204   -1.2673   -0.0179 C   0  0  0  0  0  0  0  0  0  0  0  0
    1.5827   -2.1325   -0.0149 N   0  0  0  0  0  0  0  0  0  0  0  0
    0.4223   -1.4042   -0.0046 C   0  0  0  0  0  0  0  0  0  0  0  0
    0.8006   -0.0666   -0.0008 C   0  0  0  0  0  0  0  0  0  0  0  0
   -0.2234    0.9952   -0.0175 C   0  0  0  0  0  0  0  0  0  0  0  0
    0.0573    2.1808   -0.0472 O   0  0  0  0  0  0  0  0  0  0  0  0
   -1.4638    0.4964   -0.0024 N   0  0  0  0  0  0  0  0  0  0  0  0
   -2.3495    3.9115    0.0372 C   0  0  0  0  0  0  0  0  0  0  0  0
   -1.8788   -0.7649    0.0057 C   0  0  0  0  0  0  0  0  0  0  0  0
   -3.0231   -1.1263    0.0172 O   0  0  0  0  0  0  0  0  0  0  0  0
   -0.8440   -1.8133   -0.0052 N   0  0  0  0  0  0  0  0  0  0  0  0
   -1.2439   -3.1979   -0.0081 C   0  0  0  0  0  0  0  0  0  0  0  0
    3.2268    1.4370    1.0327 H   0  0  0  0  0  0  0  0  0  0  0  0
    3.8519    1.0613   -0.5861 H   0  0  0  0  0  0  0  0  0  0  0  0
    2.3405    1.9984   -0.3889 H   0  0  0  0  0  0  0  0  0  0  0  0
    3.6530   -1.5567   -0.0263 H   0  0  0  0  0  0  0  0  0  0  0  0
   -1.2836    4.0483    0.0540 H   0  0  0  0  0  0  0  0  0  0  0  0
   -2.8704    3.8446   -0.8986 H   0  0  0  0  0  0  0  0  0  0  0  0
   -2.8944    3.7835    0.9531 H   0  0  0  0  0  0  0  0  0  0  0  0
   -0.8779   -3.7108    0.8831 H   0  0  0  0  0  0  0  0  0  0  0  0
   -0.8826   -3.7047   -0.9050 H   0  0  0  0  0  0  0  0  0  0  0  0
   -2.3342   -3.2147   -0.0057 H   0  0  0  0  0  0  0  0  0  0  0  0
    1.6574   -3.1399   -0.0196 H   0  0  0  0  0  0  0  0  0  0  0  0
  1  2  1  0  0  0  0
  2  3  4  0  0  0  0
  3  4  4  0  0  0  0
  4  5  1  0  0  0  0
  2  6  1  0  0  0  0
  5  6  4  0  0  0  0
  6  7  1  0  0  0  0
  7  8  2  0  0  0  0
  7  9  4  0  0  0  0
  9 11  4  0  0  0  0
 11 12  2  0  0  0  0
  5 13  4  0  0  0  0
 11 13  1  0  0  0  0
 13 14  1  0  0  0  0
  1 15  1  0  0  0  0
  1 16  1  0  0  0  0
  1 17  1  0  0  0  0
  3 18  1  0  0  0  0
 10 19  1  0  0  0  0
 10 20  1  0  0  0  0
 10 21  1  0  0  0  0
 14 22  1  0  0  0  0
 14 23  1  0  0  0  0
 14 24  1  0  0  0  0
  4 25  1  0  0  0  0
M  CHG  1   1   1
M  END
