          25
 
C              3.17047719       -0.64352277        0.37319572
C              3.29583273       -0.91080129       -1.06835528
C              4.57075532       -0.57118617       -0.27120287
C              5.16656438        0.73279636       -0.46339000
C              6.51347475        0.92135057       -0.37296282
C              7.38460788       -0.14241308       -0.08262403
O              8.70725184       -0.05295890        0.03229654
C              9.35705587        1.18317283       -0.16745737
C              6.83955630       -1.45928030        0.11152865
O              7.76090421       -2.40662393        0.37286778
C              7.33869261       -3.74198211        0.53431098
C              5.49297346       -1.65803638        0.01853847
H              3.00404289       -1.46307597        1.05425317
H              2.74329004        0.29456335        0.69023215
H              2.94506927       -0.16170745       -1.76094506
H              3.21838602       -1.92474408       -1.42625547
H              4.51656569        1.56440641       -0.68600255
H              6.91764888        1.90917736       -0.52717242
H              9.02135103        1.93429030        0.55445498
H              9.20109746        1.55624368       -1.18475887
H             10.41701929        0.98446777       -0.01339191
H              8.24948220       -4.32048464        0.67055174
H              6.69961214       -3.85463203        1.41553739
H              6.80737874       -4.10083761       -0.35136730
H              5.06947518       -2.63864523        0.16257488
