 xtb: 6.6.1 (8d0f1dd)
          06052419583D

 25 25  0     0  0            999 V2000
    3.9788    3.3591    0.1180 C   0  0  0  0  0  0  0  0  0  0  0  0
    2.1781   -1.0779   -0.0293 N   0  0  0  0  0  0  0  0  0  0  0  0
    2.0811   -2.3729   -0.0739 C   0  0  0  0  0  0  0  0  0  0  0  0
    0.7746   -2.7899   -0.0935 N   0  0  0  0  0  0  0  0  0  0  0  0
    0.0151   -1.6652   -0.0584 C   0  0  0  0  0  0  0  0  0  0  0  0
    0.9141   -0.5895   -0.0185 C   0  0  0  0  0  0  0  0  0  0  0  0
    0.4344    0.7699    0.0307 C   0  0  0  0  0  0  0  0  0  0  0  0
    1.1097    1.7767    0.0650 O   0  0  0  0  0  0  0  0  0  0  0  0
   -0.9658    0.8291    0.0349 N   0  0  0  0  0  0  0  0  0  0  0  0
   -1.5849    2.1415    0.0956 C   0  0  0  0  0  0  0  0  0  0  0  0
   -1.8577   -0.2298   -0.0014 C   0  0  0  0  0  0  0  0  0  0  0  0
   -3.0503   -0.0525    0.0104 O   0  0  0  0  0  0  0  0  0  0  0  0
   -1.3250   -1.5237   -0.0562 N   0  0  0  0  0  0  0  0  0  0  0  0
   -2.2261   -2.6547   -0.1056 C   0  0  0  0  0  0  0  0  0  0  0  0
    4.4023    3.6822    1.0497 H   0  0  0  0  0  0  0  0  0  0  0  0
    4.5409    3.4821   -0.7883 H   0  0  0  0  0  0  0  0  0  0  0  0
    2.9971    2.9189    0.0923 H   0  0  0  0  0  0  0  0  0  0  0  0
    2.9111   -3.0494   -0.0910 H   0  0  0  0  0  0  0  0  0  0  0  0
   -0.7975    2.8918    0.0667 H   0  0  0  0  0  0  0  0  0  0  0  0
   -2.2659    2.2717   -0.7465 H   0  0  0  0  0  0  0  0  0  0  0  0
   -2.1633    2.2394    1.0160 H   0  0  0  0  0  0  0  0  0  0  0  0
   -2.0963   -3.2869    0.7741 H   0  0  0  0  0  0  0  0  0  0  0  0
   -2.0525   -3.2391   -1.0103 H   0  0  0  0  0  0  0  0  0  0  0  0
   -3.2445   -2.2667   -0.1186 H   0  0  0  0  0  0  0  0  0  0  0  0
    0.4532   -3.7459   -0.1308 H   0  0  0  0  0  0  0  0  0  0  0  0
  2  3  2  0  0  0  0
  3  4  4  0  0  0  0
  4  5  4  0  0  0  0
  2  6  4  0  0  0  0
  5  6  4  0  0  0  0
  6  7  1  0  0  0  0
  7  8  2  0  0  0  0
  7  9  1  0  0  0  0
  9 10  1  0  0  0  0
  9 11  1  0  0  0  0
 11 12  2  0  0  0  0
  5 13  1  0  0  0  0
 11 13  1  0  0  0  0
 13 14  1  0  0  0  0
  1 15  1  0  0  0  0
  1 16  1  0  0  0  0
  1 17  1  0  0  0  0
  3 18  1  0  0  0  0
 10 19  1  0  0  0  0
 10 20  1  0  0  0  0
 10 21  1  0  0  0  0
 14 22  1  0  0  0  0
 14 23  1  0  0  0  0
 14 24  1  0  0  0  0
  4 25  1  0  0  0  0
M  CHG  1   1   1
M  END
