          20
 
C             -4.05690557        0.10023541        0.99794017
C             -4.73437097       -0.21841190       -0.16988284
C             -4.82834290       -1.53755618       -0.59021484
O             -5.46743991       -1.96341913       -1.69770032
C             -6.17843321       -1.03407758       -2.48126230
C             -4.22014162       -2.55940156        0.19103944
O             -4.36949843       -3.80933514       -0.29066021
C             -3.87729818       -4.89819872        0.45477189
C             -3.54709279       -2.21628355        1.35471087
C             -3.46680373       -0.88905084        1.75768533
H             -5.20191948        0.56738784       -0.74161790
H             -6.95406570       -0.52868222       -1.89793017
H             -6.64547866       -1.61598195       -3.27340836
H             -5.51059385       -0.28937286       -2.92624965
H             -4.33890254       -4.94639889        1.44539826
H             -4.14825020       -5.78626806       -0.11299887
H             -2.78867228       -4.85362615        0.55987904
H             -3.09108234       -2.97910700        1.96477313
H             -2.95139939       -0.64170849        2.67302156
H             -4.03280027        1.15276529        1.32079951
