 xtb: 6.6.1 (8d0f1dd)
          06052419583D

 25 26  0     0  0            999 V2000
    3.3019    1.1011    0.0157 C   0  0  0  0  0  0  0  0  0  0  0  0
    2.3144    0.0559    0.0021 N   0  0  0  0  0  0  0  0  0  0  0  0
    2.5405   -1.2537   -0.0382 C   0  0  0  0  0  0  0  0  0  0  0  0
    1.3690   -1.9309   -0.0300 N   0  0  0  0  0  0  0  0  0  0  0  0
    0.3537   -1.0153    0.0200 C   0  0  0  0  0  0  0  0  0  0  0  0
    0.9440    0.2564    0.0396 C   0  0  0  0  0  0  0  0  0  0  0  0
    0.2073    1.4632    0.0162 C   0  0  0  0  0  0  0  0  0  0  0  0
    0.6072    2.6036    0.0559 O   0  0  0  0  0  0  0  0  0  0  0  0
   -1.2380    1.2026   -0.0824 N   0  0  0  0  0  0  0  0  0  0  0  0
   -2.0237    2.2755   -0.1973 C   0  0  0  0  0  0  0  0  0  0  0  0
   -1.7437   -0.0527    0.0135 C   0  0  0  0  0  0  0  0  0  0  0  0
   -3.0727   -0.2166    0.1249 O   0  0  0  0  0  0  0  0  0  0  0  0
   -0.9766   -1.1873    0.0400 N   0  0  0  0  0  0  0  0  0  0  0  0
   -1.5807   -2.5057    0.0731 C   0  0  0  0  0  0  0  0  0  0  0  0
    3.8046    1.1368    0.9837 H   0  0  0  0  0  0  0  0  0  0  0  0
    4.0451    0.9302   -0.7620 H   0  0  0  0  0  0  0  0  0  0  0  0
    2.8024    2.0544   -0.1526 H   0  0  0  0  0  0  0  0  0  0  0  0
    3.5077   -1.7128   -0.0712 H   0  0  0  0  0  0  0  0  0  0  0  0
   -1.5446    3.2264   -0.1387 H   0  0  0  0  0  0  0  0  0  0  0  0
   -3.0499    2.2033   -0.5008 H   0  0  0  0  0  0  0  0  0  0  0  0
   -3.4631    0.6238    0.4240 H   0  0  0  0  0  0  0  0  0  0  0  0
   -1.2353   -3.0507    0.9521 H   0  0  0  0  0  0  0  0  0  0  0  0
   -1.3252   -3.0592   -0.8309 H   0  0  0  0  0  0  0  0  0  0  0  0
   -2.6602   -2.3954    0.1249 H   0  0  0  0  0  0  0  0  0  0  0  0
    1.2765   -2.9347   -0.0504 H   0  0  0  0  0  0  0  0  0  0  0  0
  1  2  1  0  0  0  0
  2  3  4  0  0  0  0
  3  4  4  0  0  0  0
  4  5  1  0  0  0  0
  2  6  1  0  0  0  0
  5  6  4  0  0  0  0
  6  7  1  0  0  0  0
  7  8  2  0  0  0  0
  7  9  1  0  0  0  0
  9 10  4  0  0  0  0
  9 11  4  0  0  0  0
 11 12  1  0  0  0  0
  5 13  4  0  0  0  0
 11 13  1  0  0  0  0
 13 14  1  0  0  0  0
  1 15  1  0  0  0  0
  1 16  1  0  0  0  0
  1 17  1  0  0  0  0
  3 18  1  0  0  0  0
 10 19  1  0  0  0  0
 10 20  1  0  0  0  0
 12 21  1  0  0  0  0
 14 22  1  0  0  0  0
 14 23  1  0  0  0  0
 14 24  1  0  0  0  0
  4 25  1  0  0  0  0
M  CHG  1   1   1
M  END
