 xtb: 6.6.1 (8d0f1dd)
          04062411123D

 72 73  0     0  0            999 V2000
   -2.0684    2.7914    2.3582 N   0  0  0  0  0  0  0  0  0  0  0  0
   -2.0325    1.9107    1.4713 C   0  0  0  0  0  0  0  0  0  0  0  0
   -3.0723    1.7597    0.3916 C   0  0  0  0  0  0  0  0  0  0  0  0
   -3.7205    0.3894    0.5274 C   0  0  0  0  0  0  0  0  0  0  0  0
   -4.5415   -0.1002   -0.4898 C   0  0  0  0  0  0  0  0  0  0  0  0
   -5.1781   -1.3257   -0.3818 C   0  0  0  0  0  0  0  0  0  0  0  0
   -6.0010   -1.8558   -1.3123 O   0  0  0  0  0  0  0  0  0  0  0  0
   -6.3698   -1.0732   -2.4230 C   0  0  0  0  0  0  0  0  0  0  0  0
   -4.9757   -2.1197    0.7789 C   0  0  0  0  0  0  0  0  0  0  0  0
   -5.6076   -3.3103    0.7881 O   0  0  0  0  0  0  0  0  0  0  0  0
   -5.4655   -4.1561    1.9073 C   0  0  0  0  0  0  0  0  0  0  0  0
   -4.1730   -1.6198    1.7925 C   0  0  0  0  0  0  0  0  0  0  0  0
   -3.5624   -0.3797    1.6709 C   0  0  0  0  0  0  0  0  0  0  0  0
   -2.3241    1.8792   -0.9634 C   0  0  0  0  0  0  0  0  0  0  0  0
   -1.4288    0.6895   -1.3260 C   0  0  0  0  0  0  0  0  0  0  0  0
   -0.0634    0.7628   -0.7598 C   0  0  0  0  0  0  0  0  0  0  0  0
    0.8115   -0.2349   -0.8598 N   0  0  0  0  0  0  0  0  0  0  0  0
    2.1807   -0.0847   -0.4391 C   0  0  0  0  0  0  0  0  0  0  0  0
    3.1518    0.0519   -1.6294 C   0  0  0  0  0  0  0  0  0  0  0  0
    4.5608    0.1862   -1.1219 C   0  0  0  0  0  0  0  0  0  0  0  0
    5.2366    1.3926   -1.1787 C   0  0  0  0  0  0  0  0  0  0  0  0
    6.5235    1.5091   -0.6731 C   0  0  0  0  0  0  0  0  0  0  0  0
    7.1533    0.4236   -0.0820 C   0  0  0  0  0  0  0  0  0  0  0  0
    8.3850    0.4271    0.4608 O   0  0  0  0  0  0  0  0  0  0  0  0
    9.1410    1.6161    0.4462 C   0  0  0  0  0  0  0  0  0  0  0  0
    6.4676   -0.8213   -0.0216 C   0  0  0  0  0  0  0  0  0  0  0  0
    7.1475   -1.8249    0.5710 O   0  0  0  0  0  0  0  0  0  0  0  0
    6.5384   -3.0872    0.6953 C   0  0  0  0  0  0  0  0  0  0  0  0
    5.1907   -0.9179   -0.5483 C   0  0  0  0  0  0  0  0  0  0  0  0
    0.4512   -1.4635   -1.5293 C   0  0  0  0  0  0  0  0  0  0  0  0
   -4.1982    2.8349    0.4454 C   0  0  0  0  0  0  0  0  0  0  0  0
   -5.0292    2.7223    1.7222 C   0  0  0  0  0  0  0  0  0  0  0  0
   -3.6826    4.2644    0.2986 C   0  0  0  0  0  0  0  0  0  0  0  0
   -4.6964    0.4955   -1.3736 H   0  0  0  0  0  0  0  0  0  0  0  0
   -6.8487   -0.1392   -2.1114 H   0  0  0  0  0  0  0  0  0  0  0  0
   -7.0829   -1.6752   -2.9819 H   0  0  0  0  0  0  0  0  0  0  0  0
   -5.5100   -0.8488   -3.0624 H   0  0  0  0  0  0  0  0  0  0  0  0
   -5.8754   -3.6970    2.8129 H   0  0  0  0  0  0  0  0  0  0  0  0
   -6.0346   -5.0533    1.6694 H   0  0  0  0  0  0  0  0  0  0  0  0
   -4.4180   -4.4258    2.0759 H   0  0  0  0  0  0  0  0  0  0  0  0
   -4.0266   -2.1850    2.6984 H   0  0  0  0  0  0  0  0  0  0  0  0
   -2.9772   -0.0119    2.4989 H   0  0  0  0  0  0  0  0  0  0  0  0
   -3.0711    1.9960   -1.7489 H   0  0  0  0  0  0  0  0  0  0  0  0
   -1.7220    2.7889   -0.9515 H   0  0  0  0  0  0  0  0  0  0  0  0
   -1.9199   -0.2437   -1.0421 H   0  0  0  0  0  0  0  0  0  0  0  0
   -1.3292    0.6552   -2.4198 H   0  0  0  0  0  0  0  0  0  0  0  0
   -1.2216    1.1660    1.3784 H   0  0  0  0  0  0  0  0  0  0  0  0
    0.2880    1.6865   -0.3297 H   0  0  0  0  0  0  0  0  0  0  0  0
    2.4677   -0.9566    0.1567 H   0  0  0  0  0  0  0  0  0  0  0  0
    2.2674    0.8018    0.1919 H   0  0  0  0  0  0  0  0  0  0  0  0
    2.8788    0.9297   -2.2161 H   0  0  0  0  0  0  0  0  0  0  0  0
    3.0722   -0.8285   -2.2695 H   0  0  0  0  0  0  0  0  0  0  0  0
    4.7690    2.2551   -1.6286 H   0  0  0  0  0  0  0  0  0  0  0  0
    7.0288    2.4584   -0.7428 H   0  0  0  0  0  0  0  0  0  0  0  0
    8.6366    2.4184    0.9937 H   0  0  0  0  0  0  0  0  0  0  0  0
    9.3500    1.9457   -0.5759 H   0  0  0  0  0  0  0  0  0  0  0  0
   10.0770    1.3719    0.9452 H   0  0  0  0  0  0  0  0  0  0  0  0
    7.2605   -3.7108    1.2194 H   0  0  0  0  0  0  0  0  0  0  0  0
    5.6163   -3.0310    1.2839 H   0  0  0  0  0  0  0  0  0  0  0  0
    6.3234   -3.5284   -0.2832 H   0  0  0  0  0  0  0  0  0  0  0  0
    4.6726   -1.8640   -0.5275 H   0  0  0  0  0  0  0  0  0  0  0  0
    0.2332   -1.2768   -2.5858 H   0  0  0  0  0  0  0  0  0  0  0  0
   -0.4339   -1.9079   -1.0700 H   0  0  0  0  0  0  0  0  0  0  0  0
    1.2713   -2.1767   -1.4599 H   0  0  0  0  0  0  0  0  0  0  0  0
   -4.8603    2.6259   -0.4040 H   0  0  0  0  0  0  0  0  0  0  0  0
   -4.4198    2.9715    2.5861 H   0  0  0  0  0  0  0  0  0  0  0  0
   -5.4249    1.7173    1.8466 H   0  0  0  0  0  0  0  0  0  0  0  0
   -5.8657    3.4161    1.6753 H   0  0  0  0  0  0  0  0  0  0  0  0
   -3.0114    4.5047    1.1171 H   0  0  0  0  0  0  0  0  0  0  0  0
   -3.1687    4.4197   -0.6470 H   0  0  0  0  0  0  0  0  0  0  0  0
   -4.5247    4.9520    0.3329 H   0  0  0  0  0  0  0  0  0  0  0  0
   -1.3084    2.8126    3.0334 H   0  0  0  0  0  0  0  0  0  0  0  0
  1  2  2  0  0  0  0
  2  3  1  0  0  0  0
  3  4  1  0  0  0  0
  4  5  4  0  0  0  0
  5  6  4  0  0  0  0
  6  7  1  0  0  0  0
  7  8  1  0  0  0  0
  6  9  4  0  0  0  0
  9 10  1  0  0  0  0
 10 11  1  0  0  0  0
  9 12  4  0  0  0  0
  4 13  4  0  0  0  0
 12 13  4  0  0  0  0
  3 14  1  0  0  0  0
 14 15  1  0  0  0  0
 15 16  1  0  0  0  0
 16 17  4  0  0  0  0
 17 18  1  0  0  0  0
 18 19  1  0  0  0  0
 19 20  1  0  0  0  0
 20 21  4  0  0  0  0
 21 22  4  0  0  0  0
 22 23  4  0  0  0  0
 23 24  1  0  0  0  0
 24 25  1  0  0  0  0
 23 26  4  0  0  0  0
 26 27  1  0  0  0  0
 27 28  1  0  0  0  0
 20 29  4  0  0  0  0
 26 29  4  0  0  0  0
 17 30  1  0  0  0  0
  3 31  1  0  0  0  0
 31 32  1  0  0  0  0
 31 33  1  0  0  0  0
  5 34  1  0  0  0  0
  8 35  1  0  0  0  0
  8 36  1  0  0  0  0
  8 37  1  0  0  0  0
 11 38  1  0  0  0  0
 11 39  1  0  0  0  0
 11 40  1  0  0  0  0
 12 41  1  0  0  0  0
 13 42  1  0  0  0  0
 14 43  1  0  0  0  0
 14 44  1  0  0  0  0
 15 45  1  0  0  0  0
 15 46  1  0  0  0  0
  2 47  1  0  0  0  0
 16 48  1  0  0  0  0
 18 49  1  0  0  0  0
 18 50  1  0  0  0  0
 19 51  1  0  0  0  0
 19 52  1  0  0  0  0
 21 53  1  0  0  0  0
 22 54  1  0  0  0  0
 25 55  1  0  0  0  0
 25 56  1  0  0  0  0
 25 57  1  0  0  0  0
 28 58  1  0  0  0  0
 28 59  1  0  0  0  0
 28 60  1  0  0  0  0
 29 61  1  0  0  0  0
 30 62  1  0  0  0  0
 30 63  1  0  0  0  0
 30 64  1  0  0  0  0
 31 65  1  0  0  0  0
 32 66  1  0  0  0  0
 32 67  1  0  0  0  0
 32 68  1  0  0  0  0
 33 69  1  0  0  0  0
 33 70  1  0  0  0  0
 33 71  1  0  0  0  0
  1 72  1  0  0  0  0
M  CHG  1   1   1
M  END
