          34
 
N             -1.98802461        3.25129153        2.37857711
C             -2.24126718        2.09130569        1.90116164
C             -3.43665144        1.78465886        1.19382699
C             -3.74265634        0.43913403        0.82744975
C             -4.79662275        0.12748076       -0.06792360
C             -5.18217954       -1.16745003       -0.34088467
O             -6.19633783       -1.52533436       -1.15291436
C             -7.02948618       -0.52953373       -1.70085388
C             -4.49234612       -2.25756140        0.26872150
O             -4.96227432       -3.47808698       -0.01916770
C             -4.39325863       -4.60872691        0.60231224
C             -3.41568336       -1.96719274        1.10374101
C             -3.05203640       -0.66613180        1.37580940
C             -4.38213561        2.92169627        0.90928452
C             -4.94924669        3.47220924        2.22280247
C             -3.70682427        4.04014052        0.11098226
H             -5.31473218        0.92655083       -0.56853705
H             -7.46316665        0.10228816       -0.91993720
H             -7.82547143       -1.06550181       -2.21452600
H             -6.49042809        0.09350078       -2.42178221
H             -4.44582889       -4.53437263        1.69254442
H             -4.98950311       -5.45617861        0.26912882
H             -3.35334889       -4.75359663        0.29409863
H             -2.86478778       -2.76964712        1.56795010
H             -2.24081265       -0.51378397        2.06834226
H             -1.52110187        1.27155898        2.02268923
H             -5.23082953        2.56036300        0.32579290
H             -4.15085338        3.90247277        2.81894408
H             -5.43326435        2.68120361        2.79182351
H             -5.68314327        4.24261763        2.00520940
H             -2.88028588        4.45274190        0.68253341
H             -3.33203623        3.66308620       -0.83837108
H             -4.42273810        4.83343547       -0.08599818
H             -1.10531375        3.37609294        2.85824811
