 xtb: 6.6.1 (8d0f1dd)
          06052419583D

 25 25  0     0  0            999 V2000
    2.8304    1.1872   -0.5191 C   0  0  0  0  0  0  0  0  0  0  0  0
    2.1074   -0.0078   -0.1778 N   0  0  0  0  0  0  0  0  0  0  0  0
    2.6199   -1.2261   -0.1222 C   0  0  0  0  0  0  0  0  0  0  0  0
    1.6584   -2.0969    0.2135 N   0  0  0  0  0  0  0  0  0  0  0  0
    0.4785   -1.4118    0.3928 C   0  0  0  0  0  0  0  0  0  0  0  0
    0.7704   -0.0737    0.1288 C   0  0  0  0  0  0  0  0  0  0  0  0
   -0.0607    1.1349    0.3044 C   0  0  0  0  0  0  0  0  0  0  0  0
    0.4160    2.1430    0.7771 O   0  0  0  0  0  0  0  0  0  0  0  0
   -1.3998    1.0514   -0.0454 N   0  0  0  0  0  0  0  0  0  0  0  0
   -2.2760    2.1101    0.4374 C   0  0  0  0  0  0  0  0  0  0  0  0
   -1.8770    0.1732   -0.9847 C   0  0  0  0  0  0  0  0  0  0  0  0
   -1.2241   -0.6561   -1.5623 O   0  0  0  0  0  0  0  0  0  0  0  0
   -0.6582   -1.9228    0.8869 N   0  0  0  0  0  0  0  0  0  0  0  0
   -1.2324   -3.0114    0.5987 C   0  0  0  0  0  0  0  0  0  0  0  0
    2.6395    1.9568    0.2299 H   0  0  0  0  0  0  0  0  0  0  0  0
    3.8945    0.9688   -0.5657 H   0  0  0  0  0  0  0  0  0  0  0  0
    2.4971    1.5655   -1.4865 H   0  0  0  0  0  0  0  0  0  0  0  0
    3.6452   -1.4805   -0.3102 H   0  0  0  0  0  0  0  0  0  0  0  0
   -1.7758    2.6250    1.2542 H   0  0  0  0  0  0  0  0  0  0  0  0
   -2.4866    2.8314   -0.3527 H   0  0  0  0  0  0  0  0  0  0  0  0
   -3.2088    1.6766    0.7924 H   0  0  0  0  0  0  0  0  0  0  0  0
   -2.0983   -3.2849    1.1830 H   0  0  0  0  0  0  0  0  0  0  0  0
   -0.9356   -3.6690   -0.2158 H   0  0  0  0  0  0  0  0  0  0  0  0
   -2.9483    0.3261   -1.1744 H   0  0  0  0  0  0  0  0  0  0  0  0
    1.7846   -3.0906    0.3487 H   0  0  0  0  0  0  0  0  0  0  0  0
  1  2  1  0  0  0  0
  2  3  4  0  0  0  0
  3  4  4  0  0  0  0
  4  5  1  0  0  0  0
  2  6  1  0  0  0  0
  5  6  4  0  0  0  0
  6  7  1  0  0  0  0
  7  8  2  0  0  0  0
  7  9  1  0  0  0  0
  9 10  1  0  0  0  0
  9 11  1  0  0  0  0
 11 12  2  0  0  0  0
  5 13  4  0  0  0  0
 13 14  2  0  0  0  0
  1 15  1  0  0  0  0
  1 16  1  0  0  0  0
  1 17  1  0  0  0  0
  3 18  1  0  0  0  0
 10 19  1  0  0  0  0
 10 20  1  0  0  0  0
 10 21  1  0  0  0  0
 14 22  1  0  0  0  0
 14 23  1  0  0  0  0
 11 24  1  0  0  0  0
  4 25  1  0  0  0  0
M  CHG  1   1   1
M  END
