 xtb: 6.6.1 (8d0f1dd)
          04062411123D

 72 72  0     0  0            999 V2000
   -1.6332    2.5961    2.2908 N   0  0  0  0  0  0  0  0  0  0  0  0
   -2.2633    2.2745    1.3922 C   0  0  0  0  0  0  0  0  0  0  0  0
   -3.1193    1.9488    0.2779 C   0  0  0  0  0  0  0  0  0  0  0  0
   -3.5413    0.4887    0.3353 C   0  0  0  0  0  0  0  0  0  0  0  0
   -4.4739    0.0060   -0.5850 C   0  0  0  0  0  0  0  0  0  0  0  0
   -4.9098   -1.3075   -0.5445 C   0  0  0  0  0  0  0  0  0  0  0  0
   -5.8181   -1.8519   -1.3787 O   0  0  0  0  0  0  0  0  0  0  0  0
   -6.4806   -1.0269   -2.3083 C   0  0  0  0  0  0  0  0  0  0  0  0
   -4.3858   -2.1883    0.4419 C   0  0  0  0  0  0  0  0  0  0  0  0
   -4.8761   -3.4425    0.4122 O   0  0  0  0  0  0  0  0  0  0  0  0
   -4.4859   -4.3577    1.4097 C   0  0  0  0  0  0  0  0  0  0  0  0
   -3.4405   -1.7059    1.3332 C   0  0  0  0  0  0  0  0  0  0  0  0
   -3.0234   -0.3811    1.2813 C   0  0  0  0  0  0  0  0  0  0  0  0
   -2.4080    2.2728   -1.0630 C   0  0  0  0  0  0  0  0  0  0  0  0
   -1.5022    1.1556   -1.6077 C   0  0  0  0  0  0  0  0  0  0  0  0
   -0.1694    1.1084   -0.9735 C   0  0  0  0  0  0  0  0  0  0  0  0
    0.4784    0.0140   -0.6206 N   0  0  0  0  0  0  0  0  0  0  0  0
    1.8675    0.0730   -0.2284 C   0  0  0  0  0  0  0  0  0  0  0  0
    2.8115   -0.3653   -1.3659 C   0  0  0  0  0  0  0  0  0  0  0  0
    4.2371   -0.1615   -0.9330 C   0  0  0  0  0  0  0  0  0  0  0  0
    4.8687    1.0548   -1.1414 C   0  0  0  0  0  0  0  0  0  0  0  0
    6.1686    1.2644   -0.7092 C   0  0  0  0  0  0  0  0  0  0  0  0
    6.8641    0.2596   -0.0510 C   0  0  0  0  0  0  0  0  0  0  0  0
    8.1228    0.3483    0.4126 O   0  0  0  0  0  0  0  0  0  0  0  0
    8.8495    1.5396    0.2156 C   0  0  0  0  0  0  0  0  0  0  0  0
    6.2227   -0.9917    0.1717 C   0  0  0  0  0  0  0  0  0  0  0  0
    6.9695   -1.9071    0.8172 O   0  0  0  0  0  0  0  0  0  0  0  0
    6.4316   -3.1817    1.0774 C   0  0  0  0  0  0  0  0  0  0  0  0
    4.9221   -1.1774   -0.2709 C   0  0  0  0  0  0  0  0  0  0  0  0
   -0.1153   -1.2975   -0.7223 C   0  0  0  0  0  0  0  0  0  0  0  0
   -4.3834    2.8615    0.4400 C   0  0  0  0  0  0  0  0  0  0  0  0
   -5.1108    2.5441    1.7454 C   0  0  0  0  0  0  0  0  0  0  0  0
   -4.0328    4.3471    0.3873 C   0  0  0  0  0  0  0  0  0  0  0  0
   -4.8715    0.6710   -1.3339 H   0  0  0  0  0  0  0  0  0  0  0  0
   -7.0066   -0.2062   -1.8113 H   0  0  0  0  0  0  0  0  0  0  0  0
   -7.2047   -1.6694   -2.8050 H   0  0  0  0  0  0  0  0  0  0  0  0
   -5.7881   -0.6221   -3.0535 H   0  0  0  0  0  0  0  0  0  0  0  0
   -4.7269   -3.9869    2.4103 H   0  0  0  0  0  0  0  0  0  0  0  0
   -5.0564   -5.2632    1.2132 H   0  0  0  0  0  0  0  0  0  0  0  0
   -3.4165   -4.5840    1.3512 H   0  0  0  0  0  0  0  0  0  0  0  0
   -3.0285   -2.3515    2.0917 H   0  0  0  0  0  0  0  0  0  0  0  0
   -2.3014   -0.0319    2.0039 H   0  0  0  0  0  0  0  0  0  0  0  0
   -3.1809    2.4680   -1.8068 H   0  0  0  0  0  0  0  0  0  0  0  0
   -1.8213    3.1842   -0.9432 H   0  0  0  0  0  0  0  0  0  0  0  0
   -2.0169    0.1977   -1.5511 H   0  0  0  0  0  0  0  0  0  0  0  0
   -1.3398    1.3779   -2.6713 H   0  0  0  0  0  0  0  0  0  0  0  0
    0.8602    2.0410    1.5011 H   0  0  0  0  0  0  0  0  0  0  0  0
    0.3515    2.0453   -0.8495 H   0  0  0  0  0  0  0  0  0  0  0  0
    2.0223   -0.5704    0.6415 H   0  0  0  0  0  0  0  0  0  0  0  0
    2.1219    1.0964    0.0544 H   0  0  0  0  0  0  0  0  0  0  0  0
    2.6024    0.2387   -2.2505 H   0  0  0  0  0  0  0  0  0  0  0  0
    2.6372   -1.4133   -1.6120 H   0  0  0  0  0  0  0  0  0  0  0  0
    4.3514    1.8508   -1.6553 H   0  0  0  0  0  0  0  0  0  0  0  0
    6.6347    2.2187   -0.8909 H   0  0  0  0  0  0  0  0  0  0  0  0
    8.3787    2.3850    0.7263 H   0  0  0  0  0  0  0  0  0  0  0  0
    8.9600    1.7697   -0.8482 H   0  0  0  0  0  0  0  0  0  0  0  0
    9.8309    1.3575    0.6495 H   0  0  0  0  0  0  0  0  0  0  0  0
    7.2210   -3.7335    1.5840 H   0  0  0  0  0  0  0  0  0  0  0  0
    5.5561   -3.1208    1.7319 H   0  0  0  0  0  0  0  0  0  0  0  0
    6.1636   -3.7012    0.1522 H   0  0  0  0  0  0  0  0  0  0  0  0
    4.4309   -2.1250   -0.1141 H   0  0  0  0  0  0  0  0  0  0  0  0
   -0.2359   -1.5990   -1.7654 H   0  0  0  0  0  0  0  0  0  0  0  0
   -1.0934   -1.3109   -0.2371 H   0  0  0  0  0  0  0  0  0  0  0  0
    0.5257   -2.0207   -0.2243 H   0  0  0  0  0  0  0  0  0  0  0  0
   -5.0566    2.6368   -0.3931 H   0  0  0  0  0  0  0  0  0  0  0  0
   -4.4892    2.7953    2.6018 H   0  0  0  0  0  0  0  0  0  0  0  0
   -5.3719    1.4897    1.8058 H   0  0  0  0  0  0  0  0  0  0  0  0
   -6.0264    3.1265    1.8069 H   0  0  0  0  0  0  0  0  0  0  0  0
   -3.2919    4.5977    1.1439 H   0  0  0  0  0  0  0  0  0  0  0  0
   -3.6514    4.6398   -0.5881 H   0  0  0  0  0  0  0  0  0  0  0  0
   -4.9266    4.9341    0.5846 H   0  0  0  0  0  0  0  0  0  0  0  0
    0.5199    2.4391    2.0829 H   0  0  0  0  0  0  0  0  0  0  0  0
  1  2  3  0  0  0  0
  2  3  1  0  0  0  0
  3  4  1  0  0  0  0
  4  5  4  0  0  0  0
  5  6  4  0  0  0  0
  6  7  1  0  0  0  0
  7  8  1  0  0  0  0
  6  9  4  0  0  0  0
  9 10  1  0  0  0  0
 10 11  1  0  0  0  0
  9 12  4  0  0  0  0
  4 13  4  0  0  0  0
 12 13  4  0  0  0  0
  3 14  1  0  0  0  0
 14 15  1  0  0  0  0
 15 16  1  0  0  0  0
 16 17  4  0  0  0  0
 17 18  1  0  0  0  0
 18 19  1  0  0  0  0
 19 20  1  0  0  0  0
 20 21  4  0  0  0  0
 21 22  4  0  0  0  0
 22 23  4  0  0  0  0
 23 24  1  0  0  0  0
 24 25  1  0  0  0  0
 23 26  4  0  0  0  0
 26 27  1  0  0  0  0
 27 28  1  0  0  0  0
 20 29  4  0  0  0  0
 26 29  4  0  0  0  0
 17 30  1  0  0  0  0
  3 31  1  0  0  0  0
 31 32  1  0  0  0  0
 31 33  1  0  0  0  0
  5 34  1  0  0  0  0
  8 35  1  0  0  0  0
  8 36  1  0  0  0  0
  8 37  1  0  0  0  0
 11 38  1  0  0  0  0
 11 39  1  0  0  0  0
 11 40  1  0  0  0  0
 12 41  1  0  0  0  0
 13 42  1  0  0  0  0
 14 43  1  0  0  0  0
 14 44  1  0  0  0  0
 15 45  1  0  0  0  0
 15 46  1  0  0  0  0
 16 48  1  0  0  0  0
 18 49  1  0  0  0  0
 18 50  1  0  0  0  0
 19 51  1  0  0  0  0
 19 52  1  0  0  0  0
 21 53  1  0  0  0  0
 22 54  1  0  0  0  0
 25 55  1  0  0  0  0
 25 56  1  0  0  0  0
 25 57  1  0  0  0  0
 28 58  1  0  0  0  0
 28 59  1  0  0  0  0
 28 60  1  0  0  0  0
 29 61  1  0  0  0  0
 30 62  1  0  0  0  0
 30 63  1  0  0  0  0
 30 64  1  0  0  0  0
 31 65  1  0  0  0  0
 32 66  1  0  0  0  0
 32 67  1  0  0  0  0
 32 68  1  0  0  0  0
 33 69  1  0  0  0  0
 33 70  1  0  0  0  0
 33 71  1  0  0  0  0
 47 72  1  0  0  0  0
M  CHG  1   1   1
M  END
