 xtb: 6.6.1 (8d0f1dd)
          06052419583D

 25 26  0     0  0            999 V2000
    3.2418    1.1289    0.3861 C   0  0  0  0  0  0  0  0  0  0  0  0
    2.2703    0.1002    0.1335 N   0  0  0  0  0  0  0  0  0  0  0  0
    2.4964   -1.2219    0.0569 C   0  0  0  0  0  0  0  0  0  0  0  0
    1.3329   -1.8693   -0.1929 N   0  0  0  0  0  0  0  0  0  0  0  0
    0.3476   -0.9346   -0.2788 C   0  0  0  0  0  0  0  0  0  0  0  0
    0.9249    0.3103   -0.0771 C   0  0  0  0  0  0  0  0  0  0  0  0
    0.1405    1.5154   -0.1040 C   0  0  0  0  0  0  0  0  0  0  0  0
    0.5260    2.6584    0.0526 O   0  0  0  0  0  0  0  0  0  0  0  0
   -1.2316    1.2159   -0.3365 N   0  0  0  0  0  0  0  0  0  0  0  0
   -2.1015    2.3767   -0.3835 C   0  0  0  0  0  0  0  0  0  0  0  0
   -1.7874    0.0250   -0.4955 C   0  0  0  0  0  0  0  0  0  0  0  0
   -1.7046   -3.0969    1.0085 O   0  0  0  0  0  0  0  0  0  0  0  0
   -0.9973   -1.1034   -0.4960 N   0  0  0  0  0  0  0  0  0  0  0  0
   -1.4877   -2.3517   -0.7229 C   0  0  0  0  0  0  0  0  0  0  0  0
    3.7459    0.9504    1.3366 H   0  0  0  0  0  0  0  0  0  0  0  0
    3.9888    1.1526   -0.4084 H   0  0  0  0  0  0  0  0  0  0  0  0
    2.7280    2.0890    0.4229 H   0  0  0  0  0  0  0  0  0  0  0  0
    3.4506   -1.6917    0.1746 H   0  0  0  0  0  0  0  0  0  0  0  0
   -1.7731    3.0468   -1.1786 H   0  0  0  0  0  0  0  0  0  0  0  0
   -3.1199    2.0463   -0.5672 H   0  0  0  0  0  0  0  0  0  0  0  0
   -2.0417    2.9201    0.5601 H   0  0  0  0  0  0  0  0  0  0  0  0
   -2.0971   -2.4682    1.6421 H   0  0  0  0  0  0  0  0  0  0  0  0
   -2.5364   -2.3264   -1.0146 H   0  0  0  0  0  0  0  0  0  0  0  0
   -2.3481   -3.7912    0.8257 H   0  0  0  0  0  0  0  0  0  0  0  0
    1.1931   -2.8624   -0.3127 H   0  0  0  0  0  0  0  0  0  0  0  0
  1  2  1  0  0  0  0
  2  3  4  0  0  0  0
  3  4  4  0  0  0  0
  4  5  1  0  0  0  0
  2  6  1  0  0  0  0
  5  6  4  0  0  0  0
  6  7  1  0  0  0  0
  7  8  2  0  0  0  0
  7  9  1  0  0  0  0
  9 10  1  0  0  0  0
  9 11  4  0  0  0  0
  5 13  1  0  0  0  0
 11 13  1  0  0  0  0
 12 14  1  0  0  0  0
 13 14  4  0  0  0  0
  1 15  1  0  0  0  0
  1 16  1  0  0  0  0
  1 17  1  0  0  0  0
  3 18  1  0  0  0  0
 10 19  1  0  0  0  0
 10 20  1  0  0  0  0
 10 21  1  0  0  0  0
 12 22  1  0  0  0  0
 14 23  1  0  0  0  0
 12 24  1  0  0  0  0
  4 25  1  0  0  0  0
M  CHG  1   1   1
M  END
