 xtb: 6.6.1 (8d0f1dd)
          04062411113D

 72 72  0     0  0            999 V2000
   -1.8419    2.7466    2.4698 N   0  0  0  0  0  0  0  0  0  0  0  0
   -1.7339    2.1399    1.3834 C   0  0  0  0  0  0  0  0  0  0  0  0
   -2.8823    1.9557    0.4319 C   0  0  0  0  0  0  0  0  0  0  0  0
   -3.3851    0.5220    0.4766 C   0  0  0  0  0  0  0  0  0  0  0  0
   -4.4091    0.1433   -0.3935 C   0  0  0  0  0  0  0  0  0  0  0  0
   -4.9151   -1.1451   -0.3943 C   0  0  0  0  0  0  0  0  0  0  0  0
   -5.9060   -1.5900   -1.1936 O   0  0  0  0  0  0  0  0  0  0  0  0
   -6.5289   -0.6903   -2.0800 C   0  0  0  0  0  0  0  0  0  0  0  0
   -4.3783   -2.1072    0.5042 C   0  0  0  0  0  0  0  0  0  0  0  0
   -4.9243   -3.3376    0.4291 O   0  0  0  0  0  0  0  0  0  0  0  0
   -4.4982   -4.3334    1.3292 C   0  0  0  0  0  0  0  0  0  0  0  0
   -3.3669   -1.7202    1.3687 C   0  0  0  0  0  0  0  0  0  0  0  0
   -2.8761   -0.4193    1.3552 C   0  0  0  0  0  0  0  0  0  0  0  0
   -2.3382    2.2749   -0.9835 C   0  0  0  0  0  0  0  0  0  0  0  0
   -1.4323    1.1764   -1.5679 C   0  0  0  0  0  0  0  0  0  0  0  0
   -0.0840    1.1341   -0.9596 C   0  0  0  0  0  0  0  0  0  0  0  0
    0.5685    0.0327   -0.6090 N   0  0  0  0  0  0  0  0  0  0  0  0
    1.9548    0.0988   -0.2109 C   0  0  0  0  0  0  0  0  0  0  0  0
    2.9010   -0.3226   -1.3518 C   0  0  0  0  0  0  0  0  0  0  0  0
    4.3289   -0.1426   -0.9183 C   0  0  0  0  0  0  0  0  0  0  0  0
    4.9744    1.0688   -1.1053 C   0  0  0  0  0  0  0  0  0  0  0  0
    6.2808    1.2504   -0.6790 C   0  0  0  0  0  0  0  0  0  0  0  0
    6.9677    0.2219   -0.0502 C   0  0  0  0  0  0  0  0  0  0  0  0
    8.2338    0.2844    0.4015 O   0  0  0  0  0  0  0  0  0  0  0  0
    8.9715    1.4708    0.2180 C   0  0  0  0  0  0  0  0  0  0  0  0
    6.3116   -1.0242    0.1508 C   0  0  0  0  0  0  0  0  0  0  0  0
    7.0510   -1.9681    0.7666 O   0  0  0  0  0  0  0  0  0  0  0  0
    6.4978   -3.2438    0.9845 C   0  0  0  0  0  0  0  0  0  0  0  0
    5.0047   -1.1815   -0.2830 C   0  0  0  0  0  0  0  0  0  0  0  0
   -0.0355   -1.2757   -0.6925 C   0  0  0  0  0  0  0  0  0  0  0  0
   -3.9924    2.9140    0.8672 C   0  0  0  0  0  0  0  0  0  0  0  0
   -4.8566    2.4327    1.9878 C   0  0  0  0  0  0  0  0  0  0  0  0
   -4.1323    4.1330    0.3640 C   0  0  0  0  0  0  0  0  0  0  0  0
   -4.8276    0.8839   -1.0533 H   0  0  0  0  0  0  0  0  0  0  0  0
   -6.9844    0.1500   -1.5476 H   0  0  0  0  0  0  0  0  0  0  0  0
   -7.3065   -1.2645   -2.5798 H   0  0  0  0  0  0  0  0  0  0  0  0
   -5.8238   -0.3113   -2.8267 H   0  0  0  0  0  0  0  0  0  0  0  0
   -4.6823   -4.0409    2.3673 H   0  0  0  0  0  0  0  0  0  0  0  0
   -5.0918   -5.2141    1.0921 H   0  0  0  0  0  0  0  0  0  0  0  0
   -3.4367   -4.5666    1.1975 H   0  0  0  0  0  0  0  0  0  0  0  0
   -2.9565   -2.4243    2.0743 H   0  0  0  0  0  0  0  0  0  0  0  0
   -2.1073   -0.1487    2.0629 H   0  0  0  0  0  0  0  0  0  0  0  0
   -3.1809    2.4123   -1.6567 H   0  0  0  0  0  0  0  0  0  0  0  0
   -1.7829    3.2131   -0.9464 H   0  0  0  0  0  0  0  0  0  0  0  0
   -1.9361    0.2137   -1.5009 H   0  0  0  0  0  0  0  0  0  0  0  0
   -1.3024    1.4096   -2.6329 H   0  0  0  0  0  0  0  0  0  0  0  0
   -0.7881    1.7113    0.9988 H   0  0  0  0  0  0  0  0  0  0  0  0
    0.4749    2.0576   -0.9220 H   0  0  0  0  0  0  0  0  0  0  0  0
    2.1122   -0.5541    0.6518 H   0  0  0  0  0  0  0  0  0  0  0  0
    2.1969    1.1211    0.0866 H   0  0  0  0  0  0  0  0  0  0  0  0
    2.6960    0.2992   -2.2250 H   0  0  0  0  0  0  0  0  0  0  0  0
    2.7156   -1.3639   -1.6175 H   0  0  0  0  0  0  0  0  0  0  0  0
    4.4649    1.8821   -1.5995 H   0  0  0  0  0  0  0  0  0  0  0  0
    6.7589    2.2015   -0.8457 H   0  0  0  0  0  0  0  0  0  0  0  0
    8.5128    2.3135    0.7443 H   0  0  0  0  0  0  0  0  0  0  0  0
    9.0776    1.7160   -0.8430 H   0  0  0  0  0  0  0  0  0  0  0  0
    9.9536    1.2723    0.6425 H   0  0  0  0  0  0  0  0  0  0  0  0
    7.2820   -3.8236    1.4673 H   0  0  0  0  0  0  0  0  0  0  0  0
    5.6260   -3.1958    1.6450 H   0  0  0  0  0  0  0  0  0  0  0  0
    6.2188   -3.7268    0.0429 H   0  0  0  0  0  0  0  0  0  0  0  0
    4.5009   -2.1251   -0.1426 H   0  0  0  0  0  0  0  0  0  0  0  0
   -0.2144   -1.5621   -1.7311 H   0  0  0  0  0  0  0  0  0  0  0  0
   -0.9869   -1.2920   -0.1553 H   0  0  0  0  0  0  0  0  0  0  0  0
    0.6300   -2.0066   -0.2408 H   0  0  0  0  0  0  0  0  0  0  0  0
   -5.4450    2.9093   -2.1218 H   0  0  0  0  0  0  0  0  0  0  0  0
   -4.2360    2.2762    2.8678 H   0  0  0  0  0  0  0  0  0  0  0  0
   -5.3399    1.4888    1.7458 H   0  0  0  0  0  0  0  0  0  0  0  0
   -5.6187    3.1690    2.2246 H   0  0  0  0  0  0  0  0  0  0  0  0
   -3.5047    4.5459   -0.4056 H   0  0  0  0  0  0  0  0  0  0  0  0
   -5.3816    3.2982   -1.4419 H   0  0  0  0  0  0  0  0  0  0  0  0
   -4.8990    4.7911    0.7381 H   0  0  0  0  0  0  0  0  0  0  0  0
   -1.0101    2.8503    3.0418 H   0  0  0  0  0  0  0  0  0  0  0  0
  1  2  2  0  0  0  0
  2  3  1  0  0  0  0
  3  4  1  0  0  0  0
  4  5  4  0  0  0  0
  5  6  4  0  0  0  0
  6  7  1  0  0  0  0
  7  8  1  0  0  0  0
  6  9  4  0  0  0  0
  9 10  1  0  0  0  0
 10 11  1  0  0  0  0
  9 12  4  0  0  0  0
  4 13  4  0  0  0  0
 12 13  4  0  0  0  0
  3 14  1  0  0  0  0
 14 15  1  0  0  0  0
 15 16  1  0  0  0  0
 16 17  4  0  0  0  0
 17 18  1  0  0  0  0
 18 19  1  0  0  0  0
 19 20  1  0  0  0  0
 20 21  4  0  0  0  0
 21 22  4  0  0  0  0
 22 23  4  0  0  0  0
 23 24  1  0  0  0  0
 24 25  1  0  0  0  0
 23 26  4  0  0  0  0
 26 27  1  0  0  0  0
 27 28  1  0  0  0  0
 20 29  4  0  0  0  0
 26 29  4  0  0  0  0
 17 30  1  0  0  0  0
  3 31  1  0  0  0  0
 31 32  1  0  0  0  0
 31 33  2  0  0  0  0
  5 34  1  0  0  0  0
  8 35  1  0  0  0  0
  8 36  1  0  0  0  0
  8 37  1  0  0  0  0
 11 38  1  0  0  0  0
 11 39  1  0  0  0  0
 11 40  1  0  0  0  0
 12 41  1  0  0  0  0
 13 42  1  0  0  0  0
 14 43  1  0  0  0  0
 14 44  1  0  0  0  0
 15 45  1  0  0  0  0
 15 46  1  0  0  0  0
  2 47  1  0  0  0  0
 16 48  1  0  0  0  0
 18 49  1  0  0  0  0
 18 50  1  0  0  0  0
 19 51  1  0  0  0  0
 19 52  1  0  0  0  0
 21 53  1  0  0  0  0
 22 54  1  0  0  0  0
 25 55  1  0  0  0  0
 25 56  1  0  0  0  0
 25 57  1  0  0  0  0
 28 58  1  0  0  0  0
 28 59  1  0  0  0  0
 28 60  1  0  0  0  0
 29 61  1  0  0  0  0
 30 62  1  0  0  0  0
 30 63  1  0  0  0  0
 30 64  1  0  0  0  0
 32 66  1  0  0  0  0
 32 67  1  0  0  0  0
 32 68  1  0  0  0  0
 33 69  1  0  0  0  0
 65 70  1  0  0  0  0
 33 71  1  0  0  0  0
  1 72  1  0  0  0  0
M  CHG  1   1   1
M  END
