 xtb: 6.6.1 (8d0f1dd)
          06052419583D

 25 25  0     0  0            999 V2000
    4.0675    0.7078    0.3363 C   0  0  0  0  0  0  0  0  0  0  0  0
    2.7348    0.2204    0.2471 N   0  0  0  0  0  0  0  0  0  0  0  0
    2.4748   -1.0004    0.0775 C   0  0  0  0  0  0  0  0  0  0  0  0
    1.1909   -1.4719   -0.0156 N   0  0  0  0  0  0  0  0  0  0  0  0
    0.0664   -0.7089    0.0680 C   0  0  0  0  0  0  0  0  0  0  0  0
   -0.0791    0.6271    0.3234 C   0  0  0  0  0  0  0  0  0  0  0  0
   -2.1560    2.6778   -0.9575 C   0  0  0  0  0  0  0  0  0  0  0  0
   -1.9816    2.6819   -2.0887 O   0  0  0  0  0  0  0  0  0  0  0  0
   -1.4341    0.8910    0.3306 N   0  0  0  0  0  0  0  0  0  0  0  0
   -2.1144    2.1551    0.3811 C   0  0  0  0  0  0  0  0  0  0  0  0
   -2.1397   -0.2823    0.0309 C   0  0  0  0  0  0  0  0  0  0  0  0
   -3.3362   -0.3613   -0.0690 O   0  0  0  0  0  0  0  0  0  0  0  0
   -1.1863   -1.2609   -0.0980 N   0  0  0  0  0  0  0  0  0  0  0  0
   -1.5088   -2.6354   -0.3894 C   0  0  0  0  0  0  0  0  0  0  0  0
    4.1902    1.1988    1.3026 H   0  0  0  0  0  0  0  0  0  0  0  0
    4.8255   -0.0757    0.2273 H   0  0  0  0  0  0  0  0  0  0  0  0
    4.2098    1.4613   -0.4392 H   0  0  0  0  0  0  0  0  0  0  0  0
    3.2311   -1.7876   -0.0151 H   0  0  0  0  0  0  0  0  0  0  0  0
    0.6686    1.3605    0.5321 H   0  0  0  0  0  0  0  0  0  0  0  0
   -3.1525    1.9670    0.7083 H   0  0  0  0  0  0  0  0  0  0  0  0
   -1.6437    2.8571    1.0790 H   0  0  0  0  0  0  0  0  0  0  0  0
   -1.1821   -3.2902    0.4198 H   0  0  0  0  0  0  0  0  0  0  0  0
   -1.0585   -2.9499   -1.3321 H   0  0  0  0  0  0  0  0  0  0  0  0
   -2.5928   -2.6982   -0.4765 H   0  0  0  0  0  0  0  0  0  0  0  0
    1.0665   -2.4650   -0.1520 H   0  0  0  0  0  0  0  0  0  0  0  0
  1  2  1  0  0  0  0
  2  3  2  0  0  0  0
  3  4  1  0  0  0  0
  4  5  1  0  0  0  0
  5  6  4  0  0  0  0
  7  8  2  0  0  0  0
  6  9  1  0  0  0  0
  7 10  1  0  0  0  0
  9 10  1  0  0  0  0
  9 11  1  0  0  0  0
 11 12  2  0  0  0  0
  5 13  1  0  0  0  0
 11 13  1  0  0  0  0
 13 14  1  0  0  0  0
  1 15  1  0  0  0  0
  1 16  1  0  0  0  0
  1 17  1  0  0  0  0
  3 18  1  0  0  0  0
  6 19  1  0  0  0  0
 10 20  1  0  0  0  0
 10 21  1  0  0  0  0
 14 22  1  0  0  0  0
 14 23  1  0  0  0  0
 14 24  1  0  0  0  0
  4 25  1  0  0  0  0
M  CHG  1   1   1
M  END
