 xtb: 6.6.1 (8d0f1dd)
          04062411123D

 72 73  0     0  0            999 V2000
   -2.6277    2.5833    2.3598 N   0  0  0  0  0  0  0  0  0  0  0  0
   -2.0079    2.1099    1.2916 C   0  0  0  0  0  0  0  0  0  0  0  0
   -2.9756    1.8210    0.1912 C   0  0  0  0  0  0  0  0  0  0  0  0
   -3.4338    0.3644    0.2362 C   0  0  0  0  0  0  0  0  0  0  0  0
   -4.4119   -0.0740   -0.6584 C   0  0  0  0  0  0  0  0  0  0  0  0
   -4.8803   -1.3764   -0.6294 C   0  0  0  0  0  0  0  0  0  0  0  0
   -5.8183   -1.8880   -1.4529 O   0  0  0  0  0  0  0  0  0  0  0  0
   -6.4368   -1.0499   -2.4003 C   0  0  0  0  0  0  0  0  0  0  0  0
   -4.3623   -2.2846    0.3330 C   0  0  0  0  0  0  0  0  0  0  0  0
   -4.8893   -3.5254    0.3010 O   0  0  0  0  0  0  0  0  0  0  0  0
   -4.5041   -4.4562    1.2857 C   0  0  0  0  0  0  0  0  0  0  0  0
   -3.3845   -1.8433    1.2082 C   0  0  0  0  0  0  0  0  0  0  0  0
   -2.9243   -0.5322    1.1579 C   0  0  0  0  0  0  0  0  0  0  0  0
   -2.4150    2.1662   -1.2010 C   0  0  0  0  0  0  0  0  0  0  0  0
   -1.4308    1.1215   -1.7539 C   0  0  0  0  0  0  0  0  0  0  0  0
   -0.1277    1.1054   -1.0554 C   0  0  0  0  0  0  0  0  0  0  0  0
    0.5121    0.0155   -0.6343 N   0  0  0  0  0  0  0  0  0  0  0  0
    1.8912    0.0960   -0.2152 C   0  0  0  0  0  0  0  0  0  0  0  0
    2.8560   -0.3123   -1.3469 C   0  0  0  0  0  0  0  0  0  0  0  0
    4.2807   -0.1231   -0.9082 C   0  0  0  0  0  0  0  0  0  0  0  0
    4.9308    1.0806   -1.1213 C   0  0  0  0  0  0  0  0  0  0  0  0
    6.2385    1.2658   -0.6988 C   0  0  0  0  0  0  0  0  0  0  0  0
    6.9209    0.2489   -0.0480 C   0  0  0  0  0  0  0  0  0  0  0  0
    8.1887    0.3168    0.4034 O   0  0  0  0  0  0  0  0  0  0  0  0
    8.9256    1.5002    0.2003 C   0  0  0  0  0  0  0  0  0  0  0  0
    6.2610   -0.9896    0.1782 C   0  0  0  0  0  0  0  0  0  0  0  0
    6.9989   -1.9247    0.8126 O   0  0  0  0  0  0  0  0  0  0  0  0
    6.4439   -3.1964    1.0469 C   0  0  0  0  0  0  0  0  0  0  0  0
    4.9540   -1.1514   -0.2518 C   0  0  0  0  0  0  0  0  0  0  0  0
   -0.0461   -1.3059   -0.7882 C   0  0  0  0  0  0  0  0  0  0  0  0
   -4.1818    2.7254    0.6312 C   0  0  0  0  0  0  0  0  0  0  0  0
   -4.0451    2.7355    2.1631 C   0  0  0  0  0  0  0  0  0  0  0  0
   -4.1154    4.1522    0.0971 C   0  0  0  0  0  0  0  0  0  0  0  0
   -4.8153    0.6180   -1.3796 H   0  0  0  0  0  0  0  0  0  0  0  0
   -6.9506   -0.2111   -1.9208 H   0  0  0  0  0  0  0  0  0  0  0  0
   -7.1682   -1.6752   -2.9084 H   0  0  0  0  0  0  0  0  0  0  0  0
   -5.7171   -0.6700   -3.1328 H   0  0  0  0  0  0  0  0  0  0  0  0
   -4.7137   -4.0835    2.2929 H   0  0  0  0  0  0  0  0  0  0  0  0
   -5.1038   -5.3447    1.0983 H   0  0  0  0  0  0  0  0  0  0  0  0
   -3.4430   -4.7128    1.2037 H   0  0  0  0  0  0  0  0  0  0  0  0
   -2.9737   -2.5107    1.9481 H   0  0  0  0  0  0  0  0  0  0  0  0
   -2.1667   -0.2192    1.8611 H   0  0  0  0  0  0  0  0  0  0  0  0
   -3.2469    2.2393   -1.9003 H   0  0  0  0  0  0  0  0  0  0  0  0
   -1.9233    3.1380   -1.1617 H   0  0  0  0  0  0  0  0  0  0  0  0
   -1.9012    0.1404   -1.7494 H   0  0  0  0  0  0  0  0  0  0  0  0
   -1.2431    1.3937   -2.8011 H   0  0  0  0  0  0  0  0  0  0  0  0
   -0.9426    1.9809    1.2554 H   0  0  0  0  0  0  0  0  0  0  0  0
    0.3899    2.0440   -0.9348 H   0  0  0  0  0  0  0  0  0  0  0  0
    2.0438   -0.5593    0.6464 H   0  0  0  0  0  0  0  0  0  0  0  0
    2.1183    1.1199    0.0882 H   0  0  0  0  0  0  0  0  0  0  0  0
    2.6505    0.3098   -2.2198 H   0  0  0  0  0  0  0  0  0  0  0  0
    2.6819   -1.3547   -1.6162 H   0  0  0  0  0  0  0  0  0  0  0  0
    4.4252    1.8847   -1.6342 H   0  0  0  0  0  0  0  0  0  0  0  0
    6.7211    2.2104   -0.8884 H   0  0  0  0  0  0  0  0  0  0  0  0
    8.4613    2.3534    0.7046 H   0  0  0  0  0  0  0  0  0  0  0  0
    9.0402    1.7230   -0.8649 H   0  0  0  0  0  0  0  0  0  0  0  0
    9.9047    1.3129    0.6369 H   0  0  0  0  0  0  0  0  0  0  0  0
    7.2248   -3.7687    1.5438 H   0  0  0  0  0  0  0  0  0  0  0  0
    5.5677   -3.1385    1.7010 H   0  0  0  0  0  0  0  0  0  0  0  0
    6.1708   -3.6942    0.1111 H   0  0  0  0  0  0  0  0  0  0  0  0
    4.4474   -2.0906   -0.0932 H   0  0  0  0  0  0  0  0  0  0  0  0
   -0.0863   -1.6032   -1.8390 H   0  0  0  0  0  0  0  0  0  0  0  0
   -1.0554   -1.3419   -0.3741 H   0  0  0  0  0  0  0  0  0  0  0  0
    0.5731   -2.0194   -0.2500 H   0  0  0  0  0  0  0  0  0  0  0  0
   -5.1272    2.2756    0.3297 H   0  0  0  0  0  0  0  0  0  0  0  0
   -4.8211    4.9924    3.7668 H   0  0  0  0  0  0  0  0  0  0  0  0
   -4.5805    1.9000    2.6260 H   0  0  0  0  0  0  0  0  0  0  0  0
   -4.4017    3.6720    2.6449 H   0  0  0  0  0  0  0  0  0  0  0  0
   -3.1739    4.6265    0.3627 H   0  0  0  0  0  0  0  0  0  0  0  0
   -4.2334    4.1822   -0.9819 H   0  0  0  0  0  0  0  0  0  0  0  0
   -4.9217    4.7345    0.5359 H   0  0  0  0  0  0  0  0  0  0  0  0
   -2.1875    2.8355    3.2311 H   0  0  0  0  0  0  0  0  0  0  0  0
  1  2  4  0  0  0  0
  2  3  1  0  0  0  0
  3  4  1  0  0  0  0
  4  5  4  0  0  0  0
  5  6  4  0  0  0  0
  6  7  1  0  0  0  0
  7  8  1  0  0  0  0
  6  9  4  0  0  0  0
  9 10  1  0  0  0  0
 10 11  1  0  0  0  0
  9 12  4  0  0  0  0
  4 13  4  0  0  0  0
 12 13  4  0  0  0  0
  3 14  1  0  0  0  0
 14 15  1  0  0  0  0
 15 16  1  0  0  0  0
 16 17  4  0  0  0  0
 17 18  1  0  0  0  0
 18 19  1  0  0  0  0
 19 20  1  0  0  0  0
 20 21  4  0  0  0  0
 21 22  4  0  0  0  0
 22 23  4  0  0  0  0
 23 24  1  0  0  0  0
 24 25  1  0  0  0  0
 23 26  4  0  0  0  0
 26 27  1  0  0  0  0
 27 28  1  0  0  0  0
 20 29  4  0  0  0  0
 26 29  4  0  0  0  0
 17 30  1  0  0  0  0
  3 31  1  0  0  0  0
  1 32  1  0  0  0  0
 31 32  1  0  0  0  0
 31 33  1  0  0  0  0
  5 34  1  0  0  0  0
  8 35  1  0  0  0  0
  8 36  1  0  0  0  0
  8 37  1  0  0  0  0
 11 38  1  0  0  0  0
 11 39  1  0  0  0  0
 11 40  1  0  0  0  0
 12 41  1  0  0  0  0
 13 42  1  0  0  0  0
 14 43  1  0  0  0  0
 14 44  1  0  0  0  0
 15 45  1  0  0  0  0
 15 46  1  0  0  0  0
  2 47  1  0  0  0  0
 16 48  1  0  0  0  0
 18 49  1  0  0  0  0
 18 50  1  0  0  0  0
 19 51  1  0  0  0  0
 19 52  1  0  0  0  0
 21 53  1  0  0  0  0
 22 54  1  0  0  0  0
 25 55  1  0  0  0  0
 25 56  1  0  0  0  0
 25 57  1  0  0  0  0
 28 58  1  0  0  0  0
 28 59  1  0  0  0  0
 28 60  1  0  0  0  0
 29 61  1  0  0  0  0
 30 62  1  0  0  0  0
 30 63  1  0  0  0  0
 30 64  1  0  0  0  0
 31 65  1  0  0  0  0
 32 67  1  0  0  0  0
 32 68  1  0  0  0  0
 33 69  1  0  0  0  0
 33 70  1  0  0  0  0
 33 71  1  0  0  0  0
  1 72  1  0  0  0  0
M  CHG  1   1   1
M  END
