          22
 
C              3.35480645        0.44798303        0.20521497
N              2.14772129       -0.31969617        0.06670598
C              2.04037643       -1.65886061        0.05132898
N              0.74018812       -2.00998014       -0.09469599
C              0.00759985       -0.86605421       -0.17606290
C              0.88224841        0.20584151       -0.07779353
C              0.41371718        1.56462943       -0.12696652
O              1.07492859        2.58318908       -0.05690807
N             -1.00277171        1.60238447       -0.26326977
C             -1.56618599        2.93846982       -0.32512775
C             -1.84058159        0.57912946       -0.32331032
N             -1.34981265       -0.70787903       -0.30600253
C             -2.14286336       -1.80547140       -0.43419425
H              3.86521154        0.18950099        1.13369768
H              4.02839470        0.25550226       -0.63092180
H              3.09320937        1.50561861        0.21770741
H              2.85790566       -2.34352736        0.14012296
H             -1.14085943        3.47486260       -1.17398979
H             -2.64444855        2.86136001       -0.43134347
H             -1.31109963        3.48803852        0.58164865
H             -3.17174841       -1.53503140       -0.66621291
H              0.35566029       -2.94234384       -0.15055417
