 xtb: 6.6.1 (8d0f1dd)
          04062411163D

 72 73  0     0  0            999 V2000
   -1.9444    3.0564    2.2168 N   0  0  0  0  0  0  0  0  0  0  0  0
   -1.7859    2.3320    1.2115 C   0  0  0  0  0  0  0  0  0  0  0  0
   -2.8904    1.9500    0.2609 C   0  0  0  0  0  0  0  0  0  0  0  0
   -3.1166    0.4572    0.3017 C   0  0  0  0  0  0  0  0  0  0  0  0
   -3.9236   -0.1578   -0.6700 C   0  0  0  0  0  0  0  0  0  0  0  0
   -4.2191   -1.4932   -0.6232 C   0  0  0  0  0  0  0  0  0  0  0  0
   -4.9183   -2.1834   -1.5274 O   0  0  0  0  0  0  0  0  0  0  0  0
   -5.5312   -1.5150   -2.6108 C   0  0  0  0  0  0  0  0  0  0  0  0
   -3.8278   -2.3491    0.5549 C   0  0  0  0  0  0  0  0  0  0  0  0
   -5.0426   -2.5629    1.2956 O   0  0  0  0  0  0  0  0  0  0  0  0
   -5.2130   -3.8510    1.8313 C   0  0  0  0  0  0  0  0  0  0  0  0
   -2.8386   -1.6628    1.4398 C   0  0  0  0  0  0  0  0  0  0  0  0
   -2.5690   -0.3426    1.3307 C   0  0  0  0  0  0  0  0  0  0  0  0
   -2.4113    2.4132   -1.1432 C   0  0  0  0  0  0  0  0  0  0  0  0
   -1.4198    1.4765   -1.8610 C   0  0  0  0  0  0  0  0  0  0  0  0
   -0.0984    1.3421   -1.1951 C   0  0  0  0  0  0  0  0  0  0  0  0
    0.4501    0.2039   -0.7836 N   0  0  0  0  0  0  0  0  0  0  0  0
    1.8326    0.2725   -0.3165 C   0  0  0  0  0  0  0  0  0  0  0  0
    2.8020   -0.0526   -1.4633 C   0  0  0  0  0  0  0  0  0  0  0  0
    4.2254    0.0319   -0.9868 C   0  0  0  0  0  0  0  0  0  0  0  0
    4.9456    1.2091   -1.1123 C   0  0  0  0  0  0  0  0  0  0  0  0
    6.2533    1.2933   -0.6608 C   0  0  0  0  0  0  0  0  0  0  0  0
    6.8676    0.1990   -0.0676 C   0  0  0  0  0  0  0  0  0  0  0  0
    8.1277    0.1639    0.3997 O   0  0  0  0  0  0  0  0  0  0  0  0
    8.9414    1.3078    0.2749 C   0  0  0  0  0  0  0  0  0  0  0  0
    6.1334   -1.0126    0.0726 C   0  0  0  0  0  0  0  0  0  0  0  0
    6.8042   -2.0233    0.6571 O   0  0  0  0  0  0  0  0  0  0  0  0
    6.1736   -3.2719    0.8153 C   0  0  0  0  0  0  0  0  0  0  0  0
    4.8268   -1.0717   -0.3870 C   0  0  0  0  0  0  0  0  0  0  0  0
   -0.1000   -1.0015   -0.7951 C   0  0  0  0  0  0  0  0  0  0  0  0
   -4.2548    2.6343    0.5990 C   0  0  0  0  0  0  0  0  0  0  0  0
   -4.7947    2.1652    1.9479 C   0  0  0  0  0  0  0  0  0  0  0  0
   -4.1871    4.1580    0.5699 C   0  0  0  0  0  0  0  0  0  0  0  0
   -4.3167    0.4421   -1.4755 H   0  0  0  0  0  0  0  0  0  0  0  0
   -6.2359   -0.7575   -2.2591 H   0  0  0  0  0  0  0  0  0  0  0  0
   -6.0686   -2.2827   -3.1641 H   0  0  0  0  0  0  0  0  0  0  0  0
   -4.7857   -1.0512   -3.2636 H   0  0  0  0  0  0  0  0  0  0  0  0
   -4.4369   -4.0924    2.5658 H   0  0  0  0  0  0  0  0  0  0  0  0
   -6.1821   -3.8422    2.3260 H   0  0  0  0  0  0  0  0  0  0  0  0
   -5.2151   -4.6132    1.0431 H   0  0  0  0  0  0  0  0  0  0  0  0
   -2.4326   -2.2454    2.2521 H   0  0  0  0  0  0  0  0  0  0  0  0
   -1.9260    0.1231    2.0621 H   0  0  0  0  0  0  0  0  0  0  0  0
   -3.2808    2.5302   -1.7906 H   0  0  0  0  0  0  0  0  0  0  0  0
   -1.9495    3.3960   -1.0371 H   0  0  0  0  0  0  0  0  0  0  0  0
   -1.8789    0.5019   -2.0091 H   0  0  0  0  0  0  0  0  0  0  0  0
   -1.2503    1.9172   -2.8509 H   0  0  0  0  0  0  0  0  0  0  0  0
   -0.8075    1.9400    0.8851 H   0  0  0  0  0  0  0  0  0  0  0  0
    0.5203    2.2233   -1.1414 H   0  0  0  0  0  0  0  0  0  0  0  0
    1.9719   -0.4416    0.4970 H   0  0  0  0  0  0  0  0  0  0  0  0
    2.0435    1.2738    0.0635 H   0  0  0  0  0  0  0  0  0  0  0  0
    2.6406    0.6566   -2.2770 H   0  0  0  0  0  0  0  0  0  0  0  0
    2.5885   -1.0559   -1.8359 H   0  0  0  0  0  0  0  0  0  0  0  0
    4.4938    2.0715   -1.5781 H   0  0  0  0  0  0  0  0  0  0  0  0
    6.7908    2.2195   -0.7809 H   0  0  0  0  0  0  0  0  0  0  0  0
    8.5277    2.1560    0.8285 H   0  0  0  0  0  0  0  0  0  0  0  0
    9.0798    1.5874   -0.7736 H   0  0  0  0  0  0  0  0  0  0  0  0
    9.9021    1.0307    0.7046 H   0  0  0  0  0  0  0  0  0  0  0  0
    6.9136   -3.9150    1.2876 H   0  0  0  0  0  0  0  0  0  0  0  0
    5.2938   -3.1979    1.4625 H   0  0  0  0  0  0  0  0  0  0  0  0
    5.8846   -3.7005   -0.1493 H   0  0  0  0  0  0  0  0  0  0  0  0
    4.2651   -1.9882   -0.2959 H   0  0  0  0  0  0  0  0  0  0  0  0
   -1.0966   -1.1588   -1.1495 H   0  0  0  0  0  0  0  0  0  0  0  0
   -3.4637   -3.3274    0.2125 H   0  0  0  0  0  0  0  0  0  0  0  0
    0.4586   -1.8325   -0.4178 H   0  0  0  0  0  0  0  0  0  0  0  0
   -4.9595    2.3102   -0.1759 H   0  0  0  0  0  0  0  0  0  0  0  0
   -4.1245    2.4716    2.7450 H   0  0  0  0  0  0  0  0  0  0  0  0
   -4.9069    1.0836    1.9746 H   0  0  0  0  0  0  0  0  0  0  0  0
   -5.7687    2.6139    2.1253 H   0  0  0  0  0  0  0  0  0  0  0  0
   -3.4857    4.5186    1.3159 H   0  0  0  0  0  0  0  0  0  0  0  0
   -3.8970    4.5357   -0.4069 H   0  0  0  0  0  0  0  0  0  0  0  0
   -5.1696    4.5600    0.8048 H   0  0  0  0  0  0  0  0  0  0  0  0
   -1.1264    3.2884    2.7714 H   0  0  0  0  0  0  0  0  0  0  0  0
  1  2  2  0  0  0  0
  2  3  1  0  0  0  0
  3  4  1  0  0  0  0
  4  5  4  0  0  0  0
  5  6  4  0  0  0  0
  6  7  1  0  0  0  0
  7  8  1  0  0  0  0
  6  9  1  0  0  0  0
  9 10  1  0  0  0  0
 10 11  1  0  0  0  0
  9 12  1  0  0  0  0
  4 13  4  0  0  0  0
 12 13  2  0  0  0  0
  3 14  1  0  0  0  0
 14 15  1  0  0  0  0
 15 16  1  0  0  0  0
 16 17  4  0  0  0  0
 17 18  1  0  0  0  0
 18 19  1  0  0  0  0
 19 20  1  0  0  0  0
 20 21  4  0  0  0  0
 21 22  4  0  0  0  0
 22 23  4  0  0  0  0
 23 24  1  0  0  0  0
 24 25  1  0  0  0  0
 23 26  4  0  0  0  0
 26 27  1  0  0  0  0
 27 28  1  0  0  0  0
 20 29  4  0  0  0  0
 26 29  4  0  0  0  0
 17 30  4  0  0  0  0
  3 31  1  0  0  0  0
 31 32  1  0  0  0  0
 31 33  1  0  0  0  0
  5 34  1  0  0  0  0
  8 35  1  0  0  0  0
  8 36  1  0  0  0  0
  8 37  1  0  0  0  0
 11 38  1  0  0  0  0
 11 39  1  0  0  0  0
 11 40  1  0  0  0  0
 12 41  1  0  0  0  0
 13 42  1  0  0  0  0
 14 43  1  0  0  0  0
 14 44  1  0  0  0  0
 15 45  1  0  0  0  0
 15 46  1  0  0  0  0
  2 47  1  0  0  0  0
 16 48  1  0  0  0  0
 18 49  1  0  0  0  0
 18 50  1  0  0  0  0
 19 51  1  0  0  0  0
 19 52  1  0  0  0  0
 21 53  1  0  0  0  0
 22 54  1  0  0  0  0
 25 55  1  0  0  0  0
 25 56  1  0  0  0  0
 25 57  1  0  0  0  0
 28 58  1  0  0  0  0
 28 59  1  0  0  0  0
 28 60  1  0  0  0  0
 29 61  1  0  0  0  0
 30 62  1  0  0  0  0
  9 63  1  0  0  0  0
 30 64  1  0  0  0  0
 31 65  1  0  0  0  0
 32 66  1  0  0  0  0
 32 67  1  0  0  0  0
 32 68  1  0  0  0  0
 33 69  1  0  0  0  0
 33 70  1  0  0  0  0
 33 71  1  0  0  0  0
  1 72  1  0  0  0  0
M  CHG  1   1   1
M  END
