 xtb: 6.6.1 (8d0f1dd)
          06052419593D

 25 25  0     0  0            999 V2000
    3.1307    0.1310   -0.9591 C   0  0  0  0  0  0  0  0  0  0  0  0
    2.3549    0.3561    0.2495 N   0  0  0  0  0  0  0  0  0  0  0  0
    2.8823    0.8544    1.2795 C   0  0  0  0  0  0  0  0  0  0  0  0
    1.0860   -2.2662   -0.2715 N   0  0  0  0  0  0  0  0  0  0  0  0
    0.4297   -1.1723   -0.1398 C   0  0  0  0  0  0  0  0  0  0  0  0
    0.9570    0.1131    0.1920 C   0  0  0  0  0  0  0  0  0  0  0  0
    0.0998    1.1970    0.6116 C   0  0  0  0  0  0  0  0  0  0  0  0
    0.5327    2.2218    1.1063 O   0  0  0  0  0  0  0  0  0  0  0  0
   -1.2491    0.9941    0.3830 N   0  0  0  0  0  0  0  0  0  0  0  0
   -2.1749    2.0684    0.6767 C   0  0  0  0  0  0  0  0  0  0  0  0
   -1.8064   -0.1901   -0.0808 C   0  0  0  0  0  0  0  0  0  0  0  0
   -2.9933   -0.2924   -0.2527 O   0  0  0  0  0  0  0  0  0  0  0  0
   -0.9367   -1.2431   -0.3051 N   0  0  0  0  0  0  0  0  0  0  0  0
   -1.4997   -2.5222   -0.6770 C   0  0  0  0  0  0  0  0  0  0  0  0
    4.1920    0.1346   -0.7141 H   0  0  0  0  0  0  0  0  0  0  0  0
    2.8564   -0.8081   -1.4342 H   0  0  0  0  0  0  0  0  0  0  0  0
    2.9299    0.9408   -1.6630 H   0  0  0  0  0  0  0  0  0  0  0  0
    2.4327    1.1553    2.2073 H   0  0  0  0  0  0  0  0  0  0  0  0
   -1.6252    2.8783    1.1523 H   0  0  0  0  0  0  0  0  0  0  0  0
   -2.6414    2.4215   -0.2457 H   0  0  0  0  0  0  0  0  0  0  0  0
   -2.9687    1.7033    1.3304 H   0  0  0  0  0  0  0  0  0  0  0  0
   -1.1789   -3.2841    0.0358 H   0  0  0  0  0  0  0  0  0  0  0  0
   -1.1405   -2.8148   -1.6653 H   0  0  0  0  0  0  0  0  0  0  0  0
   -2.5851   -2.4371   -0.6854 H   0  0  0  0  0  0  0  0  0  0  0  0
    2.0761   -2.3210   -0.0992 H   0  0  0  0  0  0  0  0  0  0  0  0
  1  2  1  0  0  0  0
  2  3  2  0  0  0  0
  4  5  2  0  0  0  0
  2  6  1  0  0  0  0
  5  6  1  0  0  0  0
  6  7  1  0  0  0  0
  7  8  2  0  0  0  0
  7  9  1  0  0  0  0
  9 10  1  0  0  0  0
  9 11  1  0  0  0  0
 11 12  2  0  0  0  0
  5 13  1  0  0  0  0
 11 13  1  0  0  0  0
 13 14  1  0  0  0  0
  1 15  1  0  0  0  0
  1 16  1  0  0  0  0
  1 17  1  0  0  0  0
  3 18  1  0  0  0  0
 10 19  1  0  0  0  0
 10 20  1  0  0  0  0
 10 21  1  0  0  0  0
 14 22  1  0  0  0  0
 14 23  1  0  0  0  0
 14 24  1  0  0  0  0
  4 25  1  0  0  0  0
M  CHG  1   1   1
M  END
