 xtb: 6.6.1 (8d0f1dd)
          06052420003D

 25 26  0     0  0            999 V2000
    3.3161    1.5825    0.0363 C   0  0  0  0  0  0  0  0  0  0  0  0
    2.5670    0.3527    0.0278 N   0  0  0  0  0  0  0  0  0  0  0  0
    3.0495   -0.8830    0.0416 C   0  0  0  0  0  0  0  0  0  0  0  0
    2.0410   -1.7759    0.0351 N   0  0  0  0  0  0  0  0  0  0  0  0
    0.8656   -1.0859    0.0165 C   0  0  0  0  0  0  0  0  0  0  0  0
    1.1979    0.2654    0.0122 C   0  0  0  0  0  0  0  0  0  0  0  0
    0.1713    1.2794   -0.0132 C   0  0  0  0  0  0  0  0  0  0  0  0
    0.3310    2.4758   -0.0268 O   0  0  0  0  0  0  0  0  0  0  0  0
   -1.1074    0.6872   -0.0228 N   0  0  0  0  0  0  0  0  0  0  0  0
   -2.2566    1.5755   -0.0444 C   0  0  0  0  0  0  0  0  0  0  0  0
   -1.3214   -0.6592   -0.0149 C   0  0  0  0  0  0  0  0  0  0  0  0
   -2.5813   -1.0051   -0.0268 O   0  0  0  0  0  0  0  0  0  0  0  0
   -0.3763   -1.5716    0.0031 N   0  0  0  0  0  0  0  0  0  0  0  0
   -2.8942   -2.3953   -0.0166 C   0  0  0  0  0  0  0  0  0  0  0  0
    3.8707    1.6829    0.9700 H   0  0  0  0  0  0  0  0  0  0  0  0
    4.0205    1.6048   -0.7948 H   0  0  0  0  0  0  0  0  0  0  0  0
    2.6170    2.4136   -0.0549 H   0  0  0  0  0  0  0  0  0  0  0  0
    4.0911   -1.1394    0.0553 H   0  0  0  0  0  0  0  0  0  0  0  0
   -1.8831    2.5979   -0.0468 H   0  0  0  0  0  0  0  0  0  0  0  0
   -2.8527    1.3941   -0.9375 H   0  0  0  0  0  0  0  0  0  0  0  0
   -2.8758    1.4064    0.8353 H   0  0  0  0  0  0  0  0  0  0  0  0
   -2.4516   -2.8822    0.8530 H   0  0  0  0  0  0  0  0  0  0  0  0
   -2.5265   -2.8746   -0.9228 H   0  0  0  0  0  0  0  0  0  0  0  0
   -3.9806   -2.4454    0.0255 H   0  0  0  0  0  0  0  0  0  0  0  0
    2.1293   -2.7824    0.0416 H   0  0  0  0  0  0  0  0  0  0  0  0
  1  2  1  0  0  0  0
  2  3  4  0  0  0  0
  3  4  4  0  0  0  0
  4  5  1  0  0  0  0
  2  6  1  0  0  0  0
  5  6  4  0  0  0  0
  6  7  1  0  0  0  0
  7  8  2  0  0  0  0
  7  9  1  0  0  0  0
  9 10  1  0  0  0  0
  9 11  4  0  0  0  0
 11 12  4  0  0  0  0
  5 13  4  0  0  0  0
 11 13  4  0  0  0  0
 12 14  1  0  0  0  0
  1 15  1  0  0  0  0
  1 16  1  0  0  0  0
  1 17  1  0  0  0  0
  3 18  1  0  0  0  0
 10 19  1  0  0  0  0
 10 20  1  0  0  0  0
 10 21  1  0  0  0  0
 14 22  1  0  0  0  0
 14 23  1  0  0  0  0
 14 24  1  0  0  0  0
  4 25  1  0  0  0  0
M  CHG  1   1   1
M  END
