           5
 
O             -4.99616348        1.02961483       -2.57763280
C             -6.24703410        0.72839912       -2.97347318
H             -6.99422835        0.95284961       -2.19048466
H             -6.35020614       -0.33694128       -3.25256429
H             -6.50815046        1.33152209       -3.86105451
