 xtb: 6.6.1 (8d0f1dd)
          06052419573D

 25 25  0     0  0            999 V2000
    3.4284    0.9149    0.0629 C   0  0  0  0  0  0  0  0  0  0  0  0
    2.5004   -0.1826   -0.0020 N   0  0  0  0  0  0  0  0  0  0  0  0
    2.7854   -1.4672   -0.1452 C   0  0  0  0  0  0  0  0  0  0  0  0
    1.6469   -2.1947   -0.1293 N   0  0  0  0  0  0  0  0  0  0  0  0
    0.5959   -1.3324    0.0307 C   0  0  0  0  0  0  0  0  0  0  0  0
    1.1440   -0.0581    0.1138 C   0  0  0  0  0  0  0  0  0  0  0  0
    0.2666    1.1256    0.2308 C   0  0  0  0  0  0  0  0  0  0  0  0
    0.7031    2.2599    0.2451 O   0  0  0  0  0  0  0  0  0  0  0  0
   -1.0270    0.7843    0.2917 N   0  0  0  0  0  0  0  0  0  0  0  0
   -3.6266    3.6606   -0.2901 C   0  0  0  0  0  0  0  0  0  0  0  0
   -1.5966   -0.4097    0.2480 C   0  0  0  0  0  0  0  0  0  0  0  0
   -2.7774   -0.6245    0.3082 O   0  0  0  0  0  0  0  0  0  0  0  0
   -0.7119   -1.5770    0.0969 N   0  0  0  0  0  0  0  0  0  0  0  0
   -1.2879   -2.8970    0.0281 C   0  0  0  0  0  0  0  0  0  0  0  0
    3.9655    0.9004    1.0127 H   0  0  0  0  0  0  0  0  0  0  0  0
    4.1497    0.8544   -0.7510 H   0  0  0  0  0  0  0  0  0  0  0  0
    2.8637    1.8462   -0.0056 H   0  0  0  0  0  0  0  0  0  0  0  0
    3.7701   -1.8780   -0.2566 H   0  0  0  0  0  0  0  0  0  0  0  0
   -2.7849    4.3267   -0.2796 H   0  0  0  0  0  0  0  0  0  0  0  0
   -4.0005    3.2754   -1.2188 H   0  0  0  0  0  0  0  0  0  0  0  0
   -4.0812    3.3588    0.6330 H   0  0  0  0  0  0  0  0  0  0  0  0
   -0.9618   -3.5078    0.8728 H   0  0  0  0  0  0  0  0  0  0  0  0
   -1.0266   -3.3876   -0.9113 H   0  0  0  0  0  0  0  0  0  0  0  0
   -2.3710   -2.7743    0.0789 H   0  0  0  0  0  0  0  0  0  0  0  0
    1.5940   -3.1979   -0.2330 H   0  0  0  0  0  0  0  0  0  0  0  0
  1  2  1  0  0  0  0
  2  3  4  0  0  0  0
  3  4  4  0  0  0  0
  4  5  1  0  0  0  0
  2  6  1  0  0  0  0
  5  6  4  0  0  0  0
  6  7  1  0  0  0  0
  7  8  2  0  0  0  0
  7  9  4  0  0  0  0
  9 11  4  0  0  0  0
 11 12  2  0  0  0  0
  5 13  4  0  0  0  0
 11 13  1  0  0  0  0
 13 14  1  0  0  0  0
  1 15  1  0  0  0  0
  1 16  1  0  0  0  0
  1 17  1  0  0  0  0
  3 18  1  0  0  0  0
 10 19  1  0  0  0  0
 10 20  1  0  0  0  0
 10 21  1  0  0  0  0
 14 22  1  0  0  0  0
 14 23  1  0  0  0  0
 14 24  1  0  0  0  0
  4 25  1  0  0  0  0
M  CHG  1   1   1
M  END
