 xtb: 6.6.1 (8d0f1dd)
          06052419583D

 25 26  0     0  0            999 V2000
    3.5816    0.9883    0.6799 C   0  0  0  0  0  0  0  0  0  0  0  0
    2.5194    0.1055    0.3784 N   0  0  0  0  0  0  0  0  0  0  0  0
    2.5735   -0.8228   -0.4691 C   0  0  0  0  0  0  0  0  0  0  0  0
    1.4915   -1.6274   -0.7385 N   0  0  0  0  0  0  0  0  0  0  0  0
    0.2487   -1.5068   -0.2116 C   0  0  0  0  0  0  0  0  0  0  0  0
   -0.1625   -0.2616    0.5468 C   0  0  0  0  0  0  0  0  0  0  0  0
   -0.2255    1.1697   -0.0608 C   0  0  0  0  0  0  0  0  0  0  0  0
    0.5085    2.0110   -0.4448 O   0  0  0  0  0  0  0  0  0  0  0  0
   -1.6429    1.0996   -0.0370 N   0  0  0  0  0  0  0  0  0  0  0  0
   -2.6725    2.0218   -0.4249 C   0  0  0  0  0  0  0  0  0  0  0  0
   -1.6492   -0.1673    0.4256 C   0  0  0  0  0  0  0  0  0  0  0  0
   -2.5132   -1.1066    0.3093 O   0  0  0  0  0  0  0  0  0  0  0  0
   -0.5956   -2.4473   -0.3704 N   0  0  0  0  0  0  0  0  0  0  0  0
   -1.9063   -2.4416    0.1020 C   0  0  0  0  0  0  0  0  0  0  0  0
    3.7496    0.9702    1.7580 H   0  0  0  0  0  0  0  0  0  0  0  0
    4.5140    0.7459    0.1578 H   0  0  0  0  0  0  0  0  0  0  0  0
    3.2636    1.9975    0.4097 H   0  0  0  0  0  0  0  0  0  0  0  0
    3.4634   -1.0819   -1.0519 H   0  0  0  0  0  0  0  0  0  0  0  0
   -2.1935    2.8671   -0.9156 H   0  0  0  0  0  0  0  0  0  0  0  0
   -3.3708    1.5378   -1.1081 H   0  0  0  0  0  0  0  0  0  0  0  0
   -3.2175    2.3746    0.4517 H   0  0  0  0  0  0  0  0  0  0  0  0
   -1.9831   -2.9972    1.0459 H   0  0  0  0  0  0  0  0  0  0  0  0
   -2.5657   -2.9102   -0.6365 H   0  0  0  0  0  0  0  0  0  0  0  0
    0.3055   -0.2401    1.5316 H   0  0  0  0  0  0  0  0  0  0  0  0
    1.6397   -2.4598   -1.2963 H   0  0  0  0  0  0  0  0  0  0  0  0
  1  2  1  0  0  0  0
  2  3  2  0  0  0  0
  3  4  1  0  0  0  0
  4  5  4  0  0  0  0
  5  6  1  0  0  0  0
  6  7  1  0  0  0  0
  7  8  2  0  0  0  0
  7  9  1  0  0  0  0
  9 10  1  0  0  0  0
  6 11  1  0  0  0  0
  9 11  4  0  0  0  0
 11 12  4  0  0  0  0
  5 13  2  0  0  0  0
 12 14  1  0  0  0  0
 13 14  1  0  0  0  0
  1 15  1  0  0  0  0
  1 16  1  0  0  0  0
  1 17  1  0  0  0  0
  3 18  1  0  0  0  0
 10 19  1  0  0  0  0
 10 20  1  0  0  0  0
 10 21  1  0  0  0  0
 14 22  1  0  0  0  0
 14 23  1  0  0  0  0
  6 24  1  0  0  0  0
  4 25  1  0  0  0  0
M  CHG  1   1   1
M  END
