 xtb: 6.6.1 (8d0f1dd)
          06052419593D

 25 26  0     0  0            999 V2000
    3.2238    1.1465    0.0182 C   0  0  0  0  0  0  0  0  0  0  0  0
    2.2695    0.0708    0.0017 N   0  0  0  0  0  0  0  0  0  0  0  0
    2.5430   -1.2260    0.0053 C   0  0  0  0  0  0  0  0  0  0  0  0
    1.3952   -1.9441   -0.0016 N   0  0  0  0  0  0  0  0  0  0  0  0
    0.3532   -1.0624    0.0009 C   0  0  0  0  0  0  0  0  0  0  0  0
    0.9062    0.2090    0.0049 C   0  0  0  0  0  0  0  0  0  0  0  0
    0.0693    1.3985   -0.0025 C   0  0  0  0  0  0  0  0  0  0  0  0
    0.4675    2.5377   -0.0140 O   0  0  0  0  0  0  0  0  0  0  0  0
   -1.2831    1.0597   -0.0000 N   0  0  0  0  0  0  0  0  0  0  0  0
   -2.2462    2.1550   -0.0046 C   0  0  0  0  0  0  0  0  0  0  0  0
   -1.8529   -0.2013    0.0011 C   0  0  0  0  0  0  0  0  0  0  0  0
   -3.0375   -0.3765    0.0022 O   0  0  0  0  0  0  0  0  0  0  0  0
   -0.9650   -1.3027   -0.0004 N   0  0  0  0  0  0  0  0  0  0  0  0
   -1.5042   -2.6475   -0.0056 C   0  0  0  0  0  0  0  0  0  0  0  0
    3.7720    1.1518    0.9601 H   0  0  0  0  0  0  0  0  0  0  0  0
    3.9342    1.0347   -0.8000 H   0  0  0  0  0  0  0  0  0  0  0  0
    2.6892    2.0884   -0.0871 H   0  0  0  0  0  0  0  0  0  0  0  0
    3.5260   -1.6520   -0.0004 H   0  0  0  0  0  0  0  0  0  0  0  0
   -1.6954    3.0919    0.0097 H   0  0  0  0  0  0  0  0  0  0  0  0
   -2.8682    2.0960   -0.8971 H   0  0  0  0  0  0  0  0  0  0  0  0
   -2.8915    2.0809    0.8699 H   0  0  0  0  0  0  0  0  0  0  0  0
   -1.1893   -3.1883    0.8873 H   0  0  0  0  0  0  0  0  0  0  0  0
   -1.1882   -3.1818   -0.9019 H   0  0  0  0  0  0  0  0  0  0  0  0
   -2.5899   -2.5630   -0.0058 H   0  0  0  0  0  0  0  0  0  0  0  0
    1.3228   -2.9569   -0.0090 H   0  0  0  0  0  0  0  0  0  0  0  0
  1  2  1  0  0  0  0
  2  3  4  0  0  0  0
  3  4  4  0  0  0  0
  4  5  1  0  0  0  0
  2  6  1  0  0  0  0
  5  6  4  0  0  0  0
  6  7  1  0  0  0  0
  7  8  2  0  0  0  0
  7  9  1  0  0  0  0
  9 10  1  0  0  0  0
  9 11  1  0  0  0  0
 11 12  2  0  0  0  0
  5 13  4  0  0  0  0
 11 13  1  0  0  0  0
 13 14  1  0  0  0  0
  1 15  1  0  0  0  0
  1 16  1  0  0  0  0
  1 17  1  0  0  0  0
  3 18  1  0  0  0  0
 10 19  1  0  0  0  0
 10 20  1  0  0  0  0
 10 21  1  0  0  0  0
 14 22  1  0  0  0  0
 14 23  1  0  0  0  0
 14 24  1  0  0  0  0
  4 25  1  0  0  0  0
M  CHG  1   1   1
M  END
