 xtb: 6.6.1 (8d0f1dd)
          06052420003D

 25 26  0     0  0            999 V2000
    3.1038    1.2195   -0.0500 C   0  0  0  0  0  0  0  0  0  0  0  0
    2.1764    0.1212   -0.0671 N   0  0  0  0  0  0  0  0  0  0  0  0
    2.5007   -1.1862   -0.0596 C   0  0  0  0  0  0  0  0  0  0  0  0
    1.3729   -1.9339   -0.0288 N   0  0  0  0  0  0  0  0  0  0  0  0
    0.3061   -1.0930   -0.0139 C   0  0  0  0  0  0  0  0  0  0  0  0
    0.8006    0.2165   -0.0374 C   0  0  0  0  0  0  0  0  0  0  0  0
   -0.0840    1.2890   -0.0323 C   0  0  0  0  0  0  0  0  0  0  0  0
    0.3233    2.5716   -0.0154 O   0  0  0  0  0  0  0  0  0  0  0  0
   -1.4328    1.0058   -0.0227 N   0  0  0  0  0  0  0  0  0  0  0  0
   -2.3581    1.9782   -0.0568 C   0  0  0  0  0  0  0  0  0  0  0  0
   -1.9468   -0.3391    0.0563 C   0  0  0  0  0  0  0  0  0  0  0  0
   -3.1297   -0.5330    0.1172 O   0  0  0  0  0  0  0  0  0  0  0  0
   -1.0230   -1.3652    0.0459 N   0  0  0  0  0  0  0  0  0  0  0  0
   -1.4991   -2.7359    0.0928 C   0  0  0  0  0  0  0  0  0  0  0  0
    3.5066    1.3640    0.9549 H   0  0  0  0  0  0  0  0  0  0  0  0
    3.9282    1.0220   -0.7337 H   0  0  0  0  0  0  0  0  0  0  0  0
    2.5864    2.1265   -0.3530 H   0  0  0  0  0  0  0  0  0  0  0  0
    3.4975   -1.5723   -0.0745 H   0  0  0  0  0  0  0  0  0  0  0  0
   -0.4273    3.1368    0.2297 H   0  0  0  0  0  0  0  0  0  0  0  0
   -2.1146    2.9916   -0.3029 H   0  0  0  0  0  0  0  0  0  0  0  0
   -3.3753    1.6983    0.0901 H   0  0  0  0  0  0  0  0  0  0  0  0
   -1.1426   -3.2291    0.9973 H   0  0  0  0  0  0  0  0  0  0  0  0
   -1.1653   -3.2818   -0.7900 H   0  0  0  0  0  0  0  0  0  0  0  0
   -2.5873   -2.7112    0.1069 H   0  0  0  0  0  0  0  0  0  0  0  0
    1.3440   -2.9423   -0.0219 H   0  0  0  0  0  0  0  0  0  0  0  0
  1  2  1  0  0  0  0
  2  3  4  0  0  0  0
  3  4  4  0  0  0  0
  4  5  1  0  0  0  0
  2  6  1  0  0  0  0
  5  6  4  0  0  0  0
  6  7  4  0  0  0  0
  7  8  1  0  0  0  0
  7  9  1  0  0  0  0
  9 10  4  0  0  0  0
  9 11  1  0  0  0  0
 11 12  2  0  0  0  0
  5 13  1  0  0  0  0
 11 13  1  0  0  0  0
 13 14  1  0  0  0  0
  1 15  1  0  0  0  0
  1 16  1  0  0  0  0
  1 17  1  0  0  0  0
  3 18  1  0  0  0  0
  8 19  1  0  0  0  0
 10 20  1  0  0  0  0
 10 21  1  0  0  0  0
 14 22  1  0  0  0  0
 14 23  1  0  0  0  0
 14 24  1  0  0  0  0
  4 25  1  0  0  0  0
M  CHG  1   1   1
M  END
