 xtb: 6.6.1 (8d0f1dd)
          06052419583D

 25 25  0     0  0            999 V2000
    3.2333    1.0762   -0.0371 C   0  0  0  0  0  0  0  0  0  0  0  0
    2.2986   -0.0169   -0.0301 N   0  0  0  0  0  0  0  0  0  0  0  0
    2.5901   -1.3144   -0.0060 C   0  0  0  0  0  0  0  0  0  0  0  0
    1.4479   -2.0408    0.0162 N   0  0  0  0  0  0  0  0  0  0  0  0
    0.3962   -1.1741    0.0081 C   0  0  0  0  0  0  0  0  0  0  0  0
    0.9257    0.1099   -0.0201 C   0  0  0  0  0  0  0  0  0  0  0  0
    0.1029    1.2810   -0.0472 C   0  0  0  0  0  0  0  0  0  0  0  0
    0.4576    2.4370   -0.1042 O   0  0  0  0  0  0  0  0  0  0  0  0
   -1.2932    0.9384   -0.0031 N   0  0  0  0  0  0  0  0  0  0  0  0
   -2.1715    1.9504   -0.0045 C   0  0  0  0  0  0  0  0  0  0  0  0
   -1.8342   -0.3796    0.0331 C   0  0  0  0  0  0  0  0  0  0  0  0
   -3.0197   -0.5630    0.0696 O   0  0  0  0  0  0  0  0  0  0  0  0
   -0.9265   -1.4351    0.0212 N   0  0  0  0  0  0  0  0  0  0  0  0
   -1.4334   -2.7952    0.0324 C   0  0  0  0  0  0  0  0  0  0  0  0
    3.6972    1.1845    0.9447 H   0  0  0  0  0  0  0  0  0  0  0  0
    4.0133    0.9014   -0.7769 H   0  0  0  0  0  0  0  0  0  0  0  0
    2.6980    1.9948   -0.2734 H   0  0  0  0  0  0  0  0  0  0  0  0
    3.5772   -1.7323   -0.0062 H   0  0  0  0  0  0  0  0  0  0  0  0
   -3.2668    5.1598    0.0841 H   0  0  0  0  0  0  0  0  0  0  0  0
   -1.7835    2.9519   -0.0319 H   0  0  0  0  0  0  0  0  0  0  0  0
   -3.2194    1.7238    0.0234 H   0  0  0  0  0  0  0  0  0  0  0  0
   -1.1240   -3.3105    0.9418 H   0  0  0  0  0  0  0  0  0  0  0  0
   -1.0831   -3.3359   -0.8468 H   0  0  0  0  0  0  0  0  0  0  0  0
   -2.5209   -2.7438    0.0085 H   0  0  0  0  0  0  0  0  0  0  0  0
    1.3988   -3.0493    0.0356 H   0  0  0  0  0  0  0  0  0  0  0  0
  1  2  1  0  0  0  0
  2  3  4  0  0  0  0
  3  4  4  0  0  0  0
  4  5  1  0  0  0  0
  2  6  1  0  0  0  0
  5  6  4  0  0  0  0
  6  7  1  0  0  0  0
  7  8  2  0  0  0  0
  7  9  1  0  0  0  0
  9 10  4  0  0  0  0
  9 11  1  0  0  0  0
 11 12  2  0  0  0  0
  5 13  1  0  0  0  0
 11 13  1  0  0  0  0
 13 14  1  0  0  0  0
  1 15  1  0  0  0  0
  1 16  1  0  0  0  0
  1 17  1  0  0  0  0
  3 18  1  0  0  0  0
 10 20  1  0  0  0  0
 10 21  1  0  0  0  0
 14 22  1  0  0  0  0
 14 23  1  0  0  0  0
 14 24  1  0  0  0  0
  4 25  1  0  0  0  0
M  CHG  1   1   1
M  END
