 xtb: 6.6.1 (8d0f1dd)
          04062411123D

 72 72  0     0  0            999 V2000
   -1.8189    2.8046    2.2317 N   0  0  0  0  0  0  0  0  0  0  0  0
   -1.7981    2.0808    1.2104 C   0  0  0  0  0  0  0  0  0  0  0  0
   -2.9838    1.8971    0.2833 C   0  0  0  0  0  0  0  0  0  0  0  0
   -3.4703    0.4554    0.3994 C   0  0  0  0  0  0  0  0  0  0  0  0
   -4.2886   -0.0902   -0.5676 C   0  0  0  0  0  0  0  0  0  0  0  0
   -4.7249   -1.3910   -0.5435 C   0  0  0  0  0  0  0  0  0  0  0  0
   -5.5245   -1.9621   -1.4695 O   0  0  0  0  0  0  0  0  0  0  0  0
   -6.0337   -1.0981   -2.4584 C   0  0  0  0  0  0  0  0  0  0  0  0
   -4.3018   -2.2341    0.5288 C   0  0  0  0  0  0  0  0  0  0  0  0
   -4.7513   -3.5045    0.4748 O   0  0  0  0  0  0  0  0  0  0  0  0
   -4.4355   -4.3897    1.5238 C   0  0  0  0  0  0  0  0  0  0  0  0
   -3.4914   -1.6914    1.5149 C   0  0  0  0  0  0  0  0  0  0  0  0
   -3.0850   -0.3654    1.4580 C   0  0  0  0  0  0  0  0  0  0  0  0
   -2.4802    2.1416   -1.1642 C   0  0  0  0  0  0  0  0  0  0  0  0
   -1.5539    1.0429   -1.7149 C   0  0  0  0  0  0  0  0  0  0  0  0
   -0.2000    1.0445   -1.1179 C   0  0  0  0  0  0  0  0  0  0  0  0
    0.4740   -0.0360   -0.7348 N   0  0  0  0  0  0  0  0  0  0  0  0
    1.8543    0.0685   -0.3250 C   0  0  0  0  0  0  0  0  0  0  0  0
    2.8259   -0.3851   -1.4315 C   0  0  0  0  0  0  0  0  0  0  0  0
    4.2424   -0.1711   -0.9758 C   0  0  0  0  0  0  0  0  0  0  0  0
    4.8772    1.0405   -1.1924 C   0  0  0  0  0  0  0  0  0  0  0  0
    6.1711    1.2548   -0.7425 C   0  0  0  0  0  0  0  0  0  0  0  0
    6.8552    0.2597   -0.0600 C   0  0  0  0  0  0  0  0  0  0  0  0
    8.1101    0.3558    0.4196 O   0  0  0  0  0  0  0  0  0  0  0  0
    8.8359    1.5450    0.2095 C   0  0  0  0  0  0  0  0  0  0  0  0
    6.2104   -0.9863    0.1711 C   0  0  0  0  0  0  0  0  0  0  0  0
    6.9466   -1.8976    0.8396 O   0  0  0  0  0  0  0  0  0  0  0  0
    6.4047   -3.1726    1.0866 C   0  0  0  0  0  0  0  0  0  0  0  0
    4.9166   -1.1769   -0.2871 C   0  0  0  0  0  0  0  0  0  0  0  0
   -0.1135   -1.3539   -0.7641 C   0  0  0  0  0  0  0  0  0  0  0  0
   -4.0724    2.8797    0.6767 C   0  0  0  0  0  0  0  0  0  0  0  0
   -4.9191    2.4883    1.8369 C   0  0  0  0  0  0  0  0  0  0  0  0
   -3.7609    4.3346    0.5769 C   0  0  0  0  0  0  0  0  0  0  0  0
   -5.8228    2.9104   -1.1755 H   0  0  0  0  0  0  0  0  0  0  0  0
   -6.6337   -0.2998   -2.0104 H   0  0  0  0  0  0  0  0  0  0  0  0
   -6.6557   -1.7127   -3.1052 H   0  0  0  0  0  0  0  0  0  0  0  0
   -5.2228   -0.6468   -3.0353 H   0  0  0  0  0  0  0  0  0  0  0  0
   -4.8128   -4.0254    2.4841 H   0  0  0  0  0  0  0  0  0  0  0  0
   -4.9297   -5.3262    1.2732 H   0  0  0  0  0  0  0  0  0  0  0  0
   -3.3557   -4.5572    1.5958 H   0  0  0  0  0  0  0  0  0  0  0  0
   -3.1704   -2.2982    2.3472 H   0  0  0  0  0  0  0  0  0  0  0  0
   -2.4694    0.0299    2.2530 H   0  0  0  0  0  0  0  0  0  0  0  0
   -3.3571    2.1855   -1.8101 H   0  0  0  0  0  0  0  0  0  0  0  0
   -1.9639    3.1008   -1.2121 H   0  0  0  0  0  0  0  0  0  0  0  0
   -2.0424    0.0760   -1.6083 H   0  0  0  0  0  0  0  0  0  0  0  0
   -1.4429    1.2402   -2.7893 H   0  0  0  0  0  0  0  0  0  0  0  0
   -0.9198    1.5157    0.8594 H   0  0  0  0  0  0  0  0  0  0  0  0
    0.3400    1.9797   -1.1031 H   0  0  0  0  0  0  0  0  0  0  0  0
    2.0109   -0.5445    0.5672 H   0  0  0  0  0  0  0  0  0  0  0  0
    2.0765    1.1065   -0.0683 H   0  0  0  0  0  0  0  0  0  0  0  0
    2.6311    0.2000   -2.3318 H   0  0  0  0  0  0  0  0  0  0  0  0
    2.6572   -1.4379   -1.6601 H   0  0  0  0  0  0  0  0  0  0  0  0
    4.3700    1.8286   -1.7282 H   0  0  0  0  0  0  0  0  0  0  0  0
    6.6413    2.2054   -0.9332 H   0  0  0  0  0  0  0  0  0  0  0  0
    8.3539    2.3999    0.6936 H   0  0  0  0  0  0  0  0  0  0  0  0
    8.9642    1.7529   -0.8570 H   0  0  0  0  0  0  0  0  0  0  0  0
    9.8104    1.3761    0.6638 H   0  0  0  0  0  0  0  0  0  0  0  0
    7.1831   -3.7246    1.6098 H   0  0  0  0  0  0  0  0  0  0  0  0
    5.5147   -3.1147    1.7218 H   0  0  0  0  0  0  0  0  0  0  0  0
    6.1574   -3.6914    0.1552 H   0  0  0  0  0  0  0  0  0  0  0  0
    4.4214   -2.1214   -0.1238 H   0  0  0  0  0  0  0  0  0  0  0  0
   -0.3095   -1.6770   -1.7887 H   0  0  0  0  0  0  0  0  0  0  0  0
   -1.0543   -1.3669   -0.2083 H   0  0  0  0  0  0  0  0  0  0  0  0
    0.5706   -2.0610   -0.3023 H   0  0  0  0  0  0  0  0  0  0  0  0
   -5.2100    2.8089   -0.5520 H   0  0  0  0  0  0  0  0  0  0  0  0
   -4.2934    2.5054    2.7348 H   0  0  0  0  0  0  0  0  0  0  0  0
   -5.3212    1.4833    1.7310 H   0  0  0  0  0  0  0  0  0  0  0  0
   -5.7358    3.1903    1.9831 H   0  0  0  0  0  0  0  0  0  0  0  0
   -3.0352    4.5795    1.3588 H   0  0  0  0  0  0  0  0  0  0  0  0
   -3.3357    4.6148   -0.3825 H   0  0  0  0  0  0  0  0  0  0  0  0
   -4.6516    4.9321    0.7517 H   0  0  0  0  0  0  0  0  0  0  0  0
   -0.9667    2.8601    2.7806 H   0  0  0  0  0  0  0  0  0  0  0  0
  1  2  2  0  0  0  0
  2  3  1  0  0  0  0
  3  4  1  0  0  0  0
  4  5  4  0  0  0  0
  5  6  4  0  0  0  0
  6  7  1  0  0  0  0
  7  8  1  0  0  0  0
  6  9  1  0  0  0  0
  9 10  1  0  0  0  0
 10 11  1  0  0  0  0
  9 12  4  0  0  0  0
  4 13  4  0  0  0  0
 12 13  4  0  0  0  0
  3 14  1  0  0  0  0
 14 15  1  0  0  0  0
 15 16  1  0  0  0  0
 16 17  4  0  0  0  0
 17 18  1  0  0  0  0
 18 19  1  0  0  0  0
 19 20  1  0  0  0  0
 20 21  4  0  0  0  0
 21 22  4  0  0  0  0
 22 23  4  0  0  0  0
 23 24  1  0  0  0  0
 24 25  1  0  0  0  0
 23 26  4  0  0  0  0
 26 27  1  0  0  0  0
 27 28  1  0  0  0  0
 20 29  4  0  0  0  0
 26 29  4  0  0  0  0
 17 30  1  0  0  0  0
  3 31  1  0  0  0  0
 31 32  1  0  0  0  0
 31 33  1  0  0  0  0
  8 35  1  0  0  0  0
  8 36  1  0  0  0  0
  8 37  1  0  0  0  0
 11 38  1  0  0  0  0
 11 39  1  0  0  0  0
 11 40  1  0  0  0  0
 12 41  1  0  0  0  0
 13 42  1  0  0  0  0
 14 43  1  0  0  0  0
 14 44  1  0  0  0  0
 15 45  1  0  0  0  0
 15 46  1  0  0  0  0
  2 47  1  0  0  0  0
 16 48  1  0  0  0  0
 18 49  1  0  0  0  0
 18 50  1  0  0  0  0
 19 51  1  0  0  0  0
 19 52  1  0  0  0  0
 21 53  1  0  0  0  0
 22 54  1  0  0  0  0
 25 55  1  0  0  0  0
 25 56  1  0  0  0  0
 25 57  1  0  0  0  0
 28 58  1  0  0  0  0
 28 59  1  0  0  0  0
 28 60  1  0  0  0  0
 29 61  1  0  0  0  0
 30 62  1  0  0  0  0
 30 63  1  0  0  0  0
 30 64  1  0  0  0  0
 34 65  1  0  0  0  0
 32 66  1  0  0  0  0
 32 67  1  0  0  0  0
 32 68  1  0  0  0  0
 33 69  1  0  0  0  0
 33 70  1  0  0  0  0
 33 71  1  0  0  0  0
  1 72  1  0  0  0  0
M  CHG  1   1   1
M  END
