 xtb: 6.6.1 (8d0f1dd)
          04062411143D

 72 72  0     0  0            999 V2000
   -1.8595    2.8402    2.1085 N   0  0  0  0  0  0  0  0  0  0  0  0
   -1.8581    2.0205    1.1674 C   0  0  0  0  0  0  0  0  0  0  0  0
   -3.0233    1.7810    0.2454 C   0  0  0  0  0  0  0  0  0  0  0  0
   -3.4719    0.3325    0.3742 C   0  0  0  0  0  0  0  0  0  0  0  0
   -4.3681   -0.2055   -0.5508 C   0  0  0  0  0  0  0  0  0  0  0  0
   -4.8195   -1.5117   -0.4460 C   0  0  0  0  0  0  0  0  0  0  0  0
   -5.6844   -2.1070   -1.2891 O   0  0  0  0  0  0  0  0  0  0  0  0
   -6.2445   -1.3668   -2.3479 C   0  0  0  0  0  0  0  0  0  0  0  0
   -4.3570   -2.3296    0.6236 C   0  0  0  0  0  0  0  0  0  0  0  0
   -4.8423   -3.5823    0.6439 O   0  0  0  0  0  0  0  0  0  0  0  0
   -4.4716   -4.4491    1.6921 C   0  0  0  0  0  0  0  0  0  0  0  0
   -3.4715   -1.7847    1.5422 C   0  0  0  0  0  0  0  0  0  0  0  0
   -3.0399   -0.4724    1.4198 C   0  0  0  0  0  0  0  0  0  0  0  0
   -2.5026    2.0523   -1.1901 C   0  0  0  0  0  0  0  0  0  0  0  0
   -1.5028    1.0060   -1.7030 C   0  0  0  0  0  0  0  0  0  0  0  0
   -0.1461    1.1776   -1.1394 C   0  0  0  0  0  0  0  0  0  0  0  0
    0.6928    0.2190   -0.8547 N   0  0  0  0  0  0  0  0  0  0  0  0
    2.0447    0.5221   -0.4479 C   0  0  0  0  0  0  0  0  0  0  0  0
    3.0203    0.4479   -1.6391 C   0  0  0  0  0  0  0  0  0  0  0  0
    4.4294    0.3690   -1.1275 C   0  0  0  0  0  0  0  0  0  0  0  0
    5.3568    1.3900   -1.2900 C   0  0  0  0  0  0  0  0  0  0  0  0
    6.6393    1.2763   -0.7753 C   0  0  0  0  0  0  0  0  0  0  0  0
    7.0250    0.1513   -0.0514 C   0  0  0  0  0  0  0  0  0  0  0  0
    8.2255   -0.0486    0.5125 O   0  0  0  0  0  0  0  0  0  0  0  0
    9.2277    0.9365    0.3792 C   0  0  0  0  0  0  0  0  0  0  0  0
    6.0657   -0.8792    0.1367 C   0  0  0  0  0  0  0  0  0  0  0  0
    6.4607   -1.9533    0.8778 O   0  0  0  0  0  0  0  0  0  0  0  0
    5.6477   -2.8299    1.3676 C   0  0  0  0  0  0  0  0  0  0  0  0
    4.8065   -0.7701   -0.4334 C   0  0  0  0  0  0  0  0  0  0  0  0
    0.3468   -1.1788   -0.9339 C   0  0  0  0  0  0  0  0  0  0  0  0
   -4.2465    2.6987    0.5421 C   0  0  0  0  0  0  0  0  0  0  0  0
   -4.8252    2.4265    1.9283 C   0  0  0  0  0  0  0  0  0  0  0  0
   -3.9354    4.1860    0.3978 C   0  0  0  0  0  0  0  0  0  0  0  0
   -4.7305    0.4089   -1.3582 H   0  0  0  0  0  0  0  0  0  0  0  0
   -6.8085   -0.5041   -1.9804 H   0  0  0  0  0  0  0  0  0  0  0  0
   -6.9230   -2.0503   -2.8546 H   0  0  0  0  0  0  0  0  0  0  0  0
   -5.4778   -1.0312   -3.0537 H   0  0  0  0  0  0  0  0  0  0  0  0
   -4.7834   -4.0560    2.6642 H   0  0  0  0  0  0  0  0  0  0  0  0
   -4.9935   -5.3836    1.4960 H   0  0  0  0  0  0  0  0  0  0  0  0
   -3.3926   -4.6302    1.6995 H   0  0  0  0  0  0  0  0  0  0  0  0
   -3.1144   -2.3746    2.3702 H   0  0  0  0  0  0  0  0  0  0  0  0
   -2.3730   -0.0789    2.1707 H   0  0  0  0  0  0  0  0  0  0  0  0
   -3.3545    2.0795   -1.8684 H   0  0  0  0  0  0  0  0  0  0  0  0
   -2.0338    3.0366   -1.2141 H   0  0  0  0  0  0  0  0  0  0  0  0
   -1.8899    0.0018   -1.5293 H   0  0  0  0  0  0  0  0  0  0  0  0
   -1.4159    1.1368   -2.7893 H   0  0  0  0  0  0  0  0  0  0  0  0
   -0.9794    1.4106    0.8904 H   0  0  0  0  0  0  0  0  0  0  0  0
    0.2251    2.1904   -1.0508 H   0  0  0  0  0  0  0  0  0  0  0  0
    2.3408   -0.2238    0.2959 H   0  0  0  0  0  0  0  0  0  0  0  0
    2.0887    1.5159    0.0012 H   0  0  0  0  0  0  0  0  0  0  0  0
    2.8874    1.3153   -2.2862 H   0  0  0  0  0  0  0  0  0  0  0  0
    2.8028   -0.4549   -2.2112 H   0  0  0  0  0  0  0  0  0  0  0  0
    5.0886    2.2841   -1.8328 H   0  0  0  0  0  0  0  0  0  0  0  0
    7.3382    2.0810   -0.9354 H   0  0  0  0  0  0  0  0  0  0  0  0
    8.9219    1.8808    0.8394 H   0  0  0  0  0  0  0  0  0  0  0  0
    9.4851    1.1049   -0.6699 H   0  0  0  0  0  0  0  0  0  0  0  0
   10.0956    0.5433    0.9052 H   0  0  0  0  0  0  0  0  0  0  0  0
    2.5649   -2.0552    0.8030 H   0  0  0  0  0  0  0  0  0  0  0  0
    6.1184   -3.6309    1.9131 H   0  0  0  0  0  0  0  0  0  0  0  0
    4.5699   -2.7647    1.2809 H   0  0  0  0  0  0  0  0  0  0  0  0
    4.0929   -1.5691   -0.3145 H   0  0  0  0  0  0  0  0  0  0  0  0
    0.3562   -1.5291   -1.9662 H   0  0  0  0  0  0  0  0  0  0  0  0
   -0.6405   -1.3568   -0.5098 H   0  0  0  0  0  0  0  0  0  0  0  0
    1.0766   -1.7550   -0.3592 H   0  0  0  0  0  0  0  0  0  0  0  0
   -5.0123    2.4390   -0.1982 H   0  0  0  0  0  0  0  0  0  0  0  0
   -4.1035    2.6961    2.6931 H   0  0  0  0  0  0  0  0  0  0  0  0
   -5.0907    1.3787    2.0456 H   0  0  0  0  0  0  0  0  0  0  0  0
   -5.7209    3.0248    2.0731 H   0  0  0  0  0  0  0  0  0  0  0  0
   -3.1389    4.4716    1.0781 H   0  0  0  0  0  0  0  0  0  0  0  0
   -3.6535    4.4477   -0.6186 H   0  0  0  0  0  0  0  0  0  0  0  0
   -4.8216    4.7609    0.6532 H   0  0  0  0  0  0  0  0  0  0  0  0
   -1.0132    2.9397    2.6598 H   0  0  0  0  0  0  0  0  0  0  0  0
  1  2  2  0  0  0  0
  2  3  1  0  0  0  0
  3  4  1  0  0  0  0
  4  5  4  0  0  0  0
  5  6  4  0  0  0  0
  6  7  1  0  0  0  0
  7  8  1  0  0  0  0
  6  9  4  0  0  0  0
  9 10  1  0  0  0  0
 10 11  1  0  0  0  0
  9 12  4  0  0  0  0
  4 13  4  0  0  0  0
 12 13  4  0  0  0  0
  3 14  1  0  0  0  0
 14 15  1  0  0  0  0
 15 16  1  0  0  0  0
 16 17  2  0  0  0  0
 17 18  1  0  0  0  0
 18 19  1  0  0  0  0
 19 20  1  0  0  0  0
 20 21  4  0  0  0  0
 21 22  4  0  0  0  0
 22 23  4  0  0  0  0
 23 24  1  0  0  0  0
 24 25  1  0  0  0  0
 23 26  4  0  0  0  0
 26 27  1  0  0  0  0
 27 28  4  0  0  0  0
 20 29  4  0  0  0  0
 26 29  4  0  0  0  0
 17 30  1  0  0  0  0
  3 31  1  0  0  0  0
 31 32  1  0  0  0  0
 31 33  1  0  0  0  0
  5 34  1  0  0  0  0
  8 35  1  0  0  0  0
  8 36  1  0  0  0  0
  8 37  1  0  0  0  0
 11 38  1  0  0  0  0
 11 39  1  0  0  0  0
 11 40  1  0  0  0  0
 12 41  1  0  0  0  0
 13 42  1  0  0  0  0
 14 43  1  0  0  0  0
 14 44  1  0  0  0  0
 15 45  1  0  0  0  0
 15 46  1  0  0  0  0
  2 47  1  0  0  0  0
 16 48  1  0  0  0  0
 18 49  1  0  0  0  0
 18 50  1  0  0  0  0
 19 51  1  0  0  0  0
 19 52  1  0  0  0  0
 21 53  1  0  0  0  0
 22 54  1  0  0  0  0
 25 55  1  0  0  0  0
 25 56  1  0  0  0  0
 25 57  1  0  0  0  0
 28 59  1  0  0  0  0
 28 60  1  0  0  0  0
 29 61  1  0  0  0  0
 30 62  1  0  0  0  0
 30 63  1  0  0  0  0
 30 64  1  0  0  0  0
 31 65  1  0  0  0  0
 32 66  1  0  0  0  0
 32 67  1  0  0  0  0
 32 68  1  0  0  0  0
 33 69  1  0  0  0  0
 33 70  1  0  0  0  0
 33 71  1  0  0  0  0
  1 72  1  0  0  0  0
M  CHG  1   1   1
M  END
