 xtb: 6.6.1 (8d0f1dd)
          06052419593D

 25 27  0     0  0            999 V2000
    2.8726    0.7340   -0.4069 C   0  0  0  0  0  0  0  0  0  0  0  0
    1.8436   -0.2158   -0.0442 N   0  0  0  0  0  0  0  0  0  0  0  0
    2.1271   -1.3886    0.4695 C   0  0  0  0  0  0  0  0  0  0  0  0
    1.1658   -2.2602    0.8897 N   0  0  0  0  0  0  0  0  0  0  0  0
   -0.1974   -2.1008    0.5265 C   0  0  0  0  0  0  0  0  0  0  0  0
    0.5288    0.1624   -0.2833 C   0  0  0  0  0  0  0  0  0  0  0  0
   -0.0372    1.4501   -0.1300 C   0  0  0  0  0  0  0  0  0  0  0  0
    0.4511    2.5533   -0.1508 O   0  0  0  0  0  0  0  0  0  0  0  0
   -1.4501    1.2224    0.0509 N   0  0  0  0  0  0  0  0  0  0  0  0
   -2.3806    2.3196    0.2054 C   0  0  0  0  0  0  0  0  0  0  0  0
   -1.7844   -0.0560    0.1488 C   0  0  0  0  0  0  0  0  0  0  0  0
   -2.7919   -0.6526    0.3543 O   0  0  0  0  0  0  0  0  0  0  0  0
   -0.4916   -0.8275   -0.1062 N   0  0  0  0  0  0  0  0  0  0  0  0
   -0.5763   -2.0486   -0.9068 C   0  0  0  0  0  0  0  0  0  0  0  0
    3.7760    0.5475    0.1685 H   0  0  0  0  0  0  0  0  0  0  0  0
    3.0971    0.6566   -1.4723 H   0  0  0  0  0  0  0  0  0  0  0  0
    2.5073    1.7433   -0.2104 H   0  0  0  0  0  0  0  0  0  0  0  0
    3.1551   -1.6663    0.6272 H   0  0  0  0  0  0  0  0  0  0  0  0
   -1.7870    3.2271    0.3089 H   0  0  0  0  0  0  0  0  0  0  0  0
   -3.0198    2.3987   -0.6737 H   0  0  0  0  0  0  0  0  0  0  0  0
   -2.9992    2.1656    1.0878 H   0  0  0  0  0  0  0  0  0  0  0  0
   -0.9099   -2.4590    1.2556 H   0  0  0  0  0  0  0  0  0  0  0  0
    0.1869   -2.1788   -1.6630 H   0  0  0  0  0  0  0  0  0  0  0  0
   -1.5817   -2.3283   -1.2014 H   0  0  0  0  0  0  0  0  0  0  0  0
    1.4561   -3.1799    1.1870 H   0  0  0  0  0  0  0  0  0  0  0  0
  1  2  1  0  0  0  0
  2  3  4  0  0  0  0
  3  4  4  0  0  0  0
  4  5  1  0  0  0  0
  2  6  1  0  0  0  0
  6  7  4  0  0  0  0
  7  8  2  0  0  0  0
  7  9  1  0  0  0  0
  9 10  1  0  0  0  0
  9 11  4  0  0  0  0
 11 12  2  0  0  0  0
  5 13  1  0  0  0  0
  6 13  1  0  0  0  0
 11 13  1  0  0  0  0
  5 14  1  0  0  0  0
 13 14  1  0  0  0  0
  1 15  1  0  0  0  0
  1 16  1  0  0  0  0
  1 17  1  0  0  0  0
  3 18  1  0  0  0  0
 10 19  1  0  0  0  0
 10 20  1  0  0  0  0
 10 21  1  0  0  0  0
  5 22  1  0  0  0  0
 14 23  1  0  0  0  0
 14 24  1  0  0  0  0
  4 25  1  0  0  0  0
M  CHG  1   1   1
M  END
