 xtb: 6.6.1 (8d0f1dd)
          04062411123D

 72 72  0     0  0            999 V2000
   -1.4920    2.3437    1.8223 N   0  0  0  0  0  0  0  0  0  0  0  0
   -2.0227    1.4248    1.1576 C   0  0  0  0  0  0  0  0  0  0  0  0
   -3.2352    1.6275    0.2819 C   0  0  0  0  0  0  0  0  0  0  0  0
   -4.1127    0.3855    0.3819 C   0  0  0  0  0  0  0  0  0  0  0  0
   -4.9603    0.0100   -0.6545 C   0  0  0  0  0  0  0  0  0  0  0  0
   -5.8085   -1.1040   -0.5455 C   0  0  0  0  0  0  0  0  0  0  0  0
   -6.6537   -1.5308   -1.4983 O   0  0  0  0  0  0  0  0  0  0  0  0
   -6.7769   -0.8090   -2.7002 C   0  0  0  0  0  0  0  0  0  0  0  0
   -5.7299   -1.7819    0.6496 C   0  0  0  0  0  0  0  0  0  0  0  0
   -1.2644   -1.4423    0.8262 O   0  0  0  0  0  0  0  0  0  0  0  0
   -1.5014   -2.4077    1.7311 C   0  0  0  0  0  0  0  0  0  0  0  0
   -4.9471   -1.4590    1.7005 C   0  0  0  0  0  0  0  0  0  0  0  0
   -4.1187   -0.3412    1.5665 C   0  0  0  0  0  0  0  0  0  0  0  0
   -2.6787    1.8216   -1.1506 C   0  0  0  0  0  0  0  0  0  0  0  0
   -1.8200    0.6462   -1.6263 C   0  0  0  0  0  0  0  0  0  0  0  0
   -0.4236    0.7525   -1.1550 C   0  0  0  0  0  0  0  0  0  0  0  0
    0.4391   -0.2206   -1.2024 N   0  0  0  0  0  0  0  0  0  0  0  0
    1.7585   -0.0901   -0.6304 C   0  0  0  0  0  0  0  0  0  0  0  0
    2.8672   -0.1089   -1.6967 C   0  0  0  0  0  0  0  0  0  0  0  0
    4.2157   -0.0643   -1.0311 C   0  0  0  0  0  0  0  0  0  0  0  0
    4.9741    1.0948   -1.0177 C   0  0  0  0  0  0  0  0  0  0  0  0
    6.2085    1.1283   -0.3867 C   0  0  0  0  0  0  0  0  0  0  0  0
    6.7057    0.0028    0.2557 C   0  0  0  0  0  0  0  0  0  0  0  0
    7.8827   -0.0811    0.8977 O   0  0  0  0  0  0  0  0  0  0  0  0
    8.7307    1.0441    0.9388 C   0  0  0  0  0  0  0  0  0  0  0  0
    5.9291   -1.1913    0.2551 C   0  0  0  0  0  0  0  0  0  0  0  0
    6.4798   -2.2329    0.9051 O   0  0  0  0  0  0  0  0  0  0  0  0
    5.7872   -3.4576    0.9611 C   0  0  0  0  0  0  0  0  0  0  0  0
    4.7028   -1.2019   -0.3901 C   0  0  0  0  0  0  0  0  0  0  0  0
    0.0637   -1.5241   -1.6798 C   0  0  0  0  0  0  0  0  0  0  0  0
   -4.1152    2.8531    0.6808 C   0  0  0  0  0  0  0  0  0  0  0  0
   -4.5846    2.7626    2.1311 C   0  0  0  0  0  0  0  0  0  0  0  0
   -3.4266    4.1989    0.4639 C   0  0  0  0  0  0  0  0  0  0  0  0
   -4.9949    0.5816   -1.5677 H   0  0  0  0  0  0  0  0  0  0  0  0
   -7.1074    0.2186   -2.5205 H   0  0  0  0  0  0  0  0  0  0  0  0
   -7.5362   -1.3331   -3.2778 H   0  0  0  0  0  0  0  0  0  0  0  0
   -5.8383   -0.8025   -3.2637 H   0  0  0  0  0  0  0  0  0  0  0  0
   -2.4298   -2.9619    1.5029 H   0  0  0  0  0  0  0  0  0  0  0  0
   -0.6746   -3.1415    1.7596 H   0  0  0  0  0  0  0  0  0  0  0  0
   -1.6053   -1.9996    2.7526 H   0  0  0  0  0  0  0  0  0  0  0  0
   -4.9536   -2.0265    2.6172 H   0  0  0  0  0  0  0  0  0  0  0  0
   -3.4966   -0.0515    2.3983 H   0  0  0  0  0  0  0  0  0  0  0  0
   -3.5120    1.9754   -1.8352 H   0  0  0  0  0  0  0  0  0  0  0  0
   -2.0773    2.7299   -1.1676 H   0  0  0  0  0  0  0  0  0  0  0  0
   -2.2458   -0.2977   -1.2730 H   0  0  0  0  0  0  0  0  0  0  0  0
   -1.8240    0.6122   -2.7228 H   0  0  0  0  0  0  0  0  0  0  0  0
   -1.6345    0.3902    1.1130 H   0  0  0  0  0  0  0  0  0  0  0  0
   -0.0820    1.6976   -0.7586 H   0  0  0  0  0  0  0  0  0  0  0  0
    1.9068   -0.9178    0.0680 H   0  0  0  0  0  0  0  0  0  0  0  0
    1.8206    0.8442   -0.0696 H   0  0  0  0  0  0  0  0  0  0  0  0
    2.7475    0.7512   -2.3562 H   0  0  0  0  0  0  0  0  0  0  0  0
    2.7888   -1.0155   -2.2991 H   0  0  0  0  0  0  0  0  0  0  0  0
    4.6123    1.9833   -1.5116 H   0  0  0  0  0  0  0  0  0  0  0  0
    6.7800    2.0417   -0.4017 H   0  0  0  0  0  0  0  0  0  0  0  0
    8.2559    1.8843    1.4540 H   0  0  0  0  0  0  0  0  0  0  0  0
    9.0327    1.3538   -0.0660 H   0  0  0  0  0  0  0  0  0  0  0  0
    9.6088    0.7271    1.4982 H   0  0  0  0  0  0  0  0  0  0  0  0
    6.4253   -4.1283    1.5331 H   0  0  0  0  0  0  0  0  0  0  0  0
    4.8252   -3.3507    1.4727 H   0  0  0  0  0  0  0  0  0  0  0  0
    5.6279   -3.8746   -0.0380 H   0  0  0  0  0  0  0  0  0  0  0  0
    4.1157   -2.1068   -0.4104 H   0  0  0  0  0  0  0  0  0  0  0  0
   -0.4406   -1.4602   -2.6422 H   0  0  0  0  0  0  0  0  0  0  0  0
   -0.6222   -1.9539   -0.9329 H   0  0  0  0  0  0  0  0  0  0  0  0
    0.9393   -2.1582   -1.7707 H   0  0  0  0  0  0  0  0  0  0  0  0
   -5.0017    2.8110    0.0359 H   0  0  0  0  0  0  0  0  0  0  0  0
   -3.7341    2.8193    2.8046 H   0  0  0  0  0  0  0  0  0  0  0  0
   -5.1282    1.8401    2.3184 H   0  0  0  0  0  0  0  0  0  0  0  0
   -5.2487    3.5937    2.3519 H   0  0  0  0  0  0  0  0  0  0  0  0
   -2.4682    4.2123    0.9736 H   0  0  0  0  0  0  0  0  0  0  0  0
   -3.2844    4.4223   -0.5899 H   0  0  0  0  0  0  0  0  0  0  0  0
   -4.0469    4.9859    0.8837 H   0  0  0  0  0  0  0  0  0  0  0  0
   -0.6657    2.1211    2.3674 H   0  0  0  0  0  0  0  0  0  0  0  0
  1  2  2  0  0  0  0
  2  3  1  0  0  0  0
  3  4  1  0  0  0  0
  4  5  4  0  0  0  0
  5  6  4  0  0  0  0
  6  7  1  0  0  0  0
  7  8  1  0  0  0  0
  6  9  4  0  0  0  0
 10 11  1  0  0  0  0
  9 12  2  0  0  0  0
  4 13  4  0  0  0  0
 12 13  4  0  0  0  0
  3 14  1  0  0  0  0
 14 15  1  0  0  0  0
 15 16  1  0  0  0  0
 16 17  2  0  0  0  0
 17 18  1  0  0  0  0
 18 19  1  0  0  0  0
 19 20  1  0  0  0  0
 20 21  4  0  0  0  0
 21 22  4  0  0  0  0
 22 23  4  0  0  0  0
 23 24  1  0  0  0  0
 24 25  1  0  0  0  0
 23 26  4  0  0  0  0
 26 27  1  0  0  0  0
 27 28  1  0  0  0  0
 20 29  4  0  0  0  0
 26 29  4  0  0  0  0
 17 30  1  0  0  0  0
  3 31  1  0  0  0  0
 31 32  1  0  0  0  0
 31 33  1  0  0  0  0
  5 34  1  0  0  0  0
  8 35  1  0  0  0  0
  8 36  1  0  0  0  0
  8 37  1  0  0  0  0
 11 38  1  0  0  0  0
 11 39  1  0  0  0  0
 11 40  1  0  0  0  0
 12 41  1  0  0  0  0
 13 42  1  0  0  0  0
 14 43  1  0  0  0  0
 14 44  1  0  0  0  0
 15 45  1  0  0  0  0
 15 46  1  0  0  0  0
  2 47  1  0  0  0  0
 16 48  1  0  0  0  0
 18 49  1  0  0  0  0
 18 50  1  0  0  0  0
 19 51  1  0  0  0  0
 19 52  1  0  0  0  0
 21 53  1  0  0  0  0
 22 54  1  0  0  0  0
 25 55  1  0  0  0  0
 25 56  1  0  0  0  0
 25 57  1  0  0  0  0
 28 58  1  0  0  0  0
 28 59  1  0  0  0  0
 28 60  1  0  0  0  0
 29 61  1  0  0  0  0
 30 62  1  0  0  0  0
 30 63  1  0  0  0  0
 30 64  1  0  0  0  0
 31 65  1  0  0  0  0
 32 66  1  0  0  0  0
 32 67  1  0  0  0  0
 32 68  1  0  0  0  0
 33 69  1  0  0  0  0
 33 70  1  0  0  0  0
 33 71  1  0  0  0  0
  1 72  1  0  0  0  0
M  CHG  1   1   1
M  END
