 xtb: 6.6.1 (8d0f1dd)
          06052419573D

 25 25  0     0  0            999 V2000
    3.1081    0.9984   -0.2147 C   0  0  0  0  0  0  0  0  0  0  0  0
    2.2267    0.0056   -0.1573 N   0  0  0  0  0  0  0  0  0  0  0  0
    2.4749   -1.3238   -0.1732 C   0  0  0  0  0  0  0  0  0  0  0  0
    1.3024   -2.0138   -0.1130 N   0  0  0  0  0  0  0  0  0  0  0  0
    0.2831   -1.1154   -0.0588 C   0  0  0  0  0  0  0  0  0  0  0  0
    0.8434    0.1506   -0.0807 C   0  0  0  0  0  0  0  0  0  0  0  0
    0.0347    1.3473   -0.0567 C   0  0  0  0  0  0  0  0  0  0  0  0
    0.4469    2.4819   -0.0751 O   0  0  0  0  0  0  0  0  0  0  0  0
   -1.3266    1.0336   -0.0089 N   0  0  0  0  0  0  0  0  0  0  0  0
   -2.2703    2.1423    0.0024 C   0  0  0  0  0  0  0  0  0  0  0  0
   -1.9097   -0.2189    0.0164 C   0  0  0  0  0  0  0  0  0  0  0  0
   -3.0979   -0.3756    0.0532 O   0  0  0  0  0  0  0  0  0  0  0  0
   -1.0401   -1.3330   -0.0046 N   0  0  0  0  0  0  0  0  0  0  0  0
   -1.6075   -2.6659    0.0231 C   0  0  0  0  0  0  0  0  0  0  0  0
    4.9391    2.4541    1.6123 H   0  0  0  0  0  0  0  0  0  0  0  0
    4.1558    0.7737   -0.2929 H   0  0  0  0  0  0  0  0  0  0  0  0
    2.7415    2.0082   -0.2114 H   0  0  0  0  0  0  0  0  0  0  0  0
    3.4458   -1.7710   -0.2199 H   0  0  0  0  0  0  0  0  0  0  0  0
   -1.7044    3.0704    0.0203 H   0  0  0  0  0  0  0  0  0  0  0  0
   -2.8994    2.1002   -0.8870 H   0  0  0  0  0  0  0  0  0  0  0  0
   -2.9134    2.0708    0.8793 H   0  0  0  0  0  0  0  0  0  0  0  0
   -1.2837   -3.2009    0.9164 H   0  0  0  0  0  0  0  0  0  0  0  0
   -1.3233   -3.2212   -0.8713 H   0  0  0  0  0  0  0  0  0  0  0  0
   -2.6916   -2.5597    0.0451 H   0  0  0  0  0  0  0  0  0  0  0  0
    1.2259   -3.0198   -0.1120 H   0  0  0  0  0  0  0  0  0  0  0  0
  1  2  4  0  0  0  0
  2  3  4  0  0  0  0
  3  4  4  0  0  0  0
  4  5  1  0  0  0  0
  2  6  1  0  0  0  0
  5  6  4  0  0  0  0
  6  7  1  0  0  0  0
  7  8  2  0  0  0  0
  7  9  1  0  0  0  0
  9 10  1  0  0  0  0
  9 11  1  0  0  0  0
 11 12  2  0  0  0  0
  5 13  4  0  0  0  0
 11 13  1  0  0  0  0
 13 14  1  0  0  0  0
  1 16  1  0  0  0  0
  1 17  1  0  0  0  0
  3 18  1  0  0  0  0
 10 19  1  0  0  0  0
 10 20  1  0  0  0  0
 10 21  1  0  0  0  0
 14 22  1  0  0  0  0
 14 23  1  0  0  0  0
 14 24  1  0  0  0  0
  4 25  1  0  0  0  0
M  CHG  1   1   1
M  END
