 xtb: 6.6.1 (8d0f1dd)
          06052419573D

 25 23  0     0  0            999 V2000
    4.4289    1.3292   -0.0045 C   0  0  0  0  0  0  0  0  0  0  0  0
    3.1649    0.6204   -0.0798 N   0  0  0  0  0  0  0  0  0  0  0  0
    3.1890   -0.7303    0.0768 C   0  0  0  0  0  0  0  0  0  0  0  0
    2.1052   -1.4316    0.0609 N   0  0  0  0  0  0  0  0  0  0  0  0
    1.1251   -2.0254   -0.2399 C   0  0  0  0  0  0  0  0  0  0  0  0
    2.0334    1.2536   -0.2809 C   0  0  0  0  0  0  0  0  0  0  0  0
    1.2093    2.1841   -0.4554 C   0  0  0  0  0  0  0  0  0  0  0  0
    0.2806    2.8898   -0.6109 O   0  0  0  0  0  0  0  0  0  0  0  0
   -2.3018    2.6796    0.8420 N   0  0  0  0  0  0  0  0  0  0  0  0
   -3.4256    2.6110    0.3255 C   0  0  0  0  0  0  0  0  0  0  0  0
   -2.4216   -1.3574   -0.2392 C   0  0  0  0  0  0  0  0  0  0  0  0
   -2.4513   -0.2079   -0.3864 O   0  0  0  0  0  0  0  0  0  0  0  0
   -2.1562   -2.4990   -0.0361 N   0  0  0  0  0  0  0  0  0  0  0  0
   -2.6302   -3.8338    0.0054 C   0  0  0  0  0  0  0  0  0  0  0  0
    4.8551    1.2330    0.9959 H   0  0  0  0  0  0  0  0  0  0  0  0
    5.1347    0.9181   -0.7278 H   0  0  0  0  0  0  0  0  0  0  0  0
    4.2694    2.3828   -0.2213 H   0  0  0  0  0  0  0  0  0  0  0  0
    4.1318   -1.2155    0.2709 H   0  0  0  0  0  0  0  0  0  0  0  0
   -1.4716    2.8774    0.2859 H   0  0  0  0  0  0  0  0  0  0  0  0
   -3.6472    2.7458   -0.7395 H   0  0  0  0  0  0  0  0  0  0  0  0
   -4.2800    2.3985    0.9591 H   0  0  0  0  0  0  0  0  0  0  0  0
   -2.3769   -4.2627    0.9769 H   0  0  0  0  0  0  0  0  0  0  0  0
   -2.1340   -4.4092   -0.7780 H   0  0  0  0  0  0  0  0  0  0  0  0
   -3.7104   -3.8846   -0.1406 H   0  0  0  0  0  0  0  0  0  0  0  0
    0.2400   -2.4475    0.1722 H   0  0  0  0  0  0  0  0  0  0  0  0
  1  2  1  0  0  0  0
  2  3  1  0  0  0  0
  3  4  4  0  0  0  0
  4  5  2  0  0  0  0
  2  6  4  0  0  0  0
  6  7  2  0  0  0  0
  7  8  2  0  0  0  0
  9 10  2  0  0  0  0
 11 12  2  0  0  0  0
 11 13  2  0  0  0  0
 12 13  1  0  0  0  0
 13 14  1  0  0  0  0
  1 15  1  0  0  0  0
  1 16  1  0  0  0  0
  1 17  1  0  0  0  0
  3 18  1  0  0  0  0
  9 19  1  0  0  0  0
 10 20  1  0  0  0  0
 10 21  1  0  0  0  0
 14 22  1  0  0  0  0
 14 23  1  0  0  0  0
 14 24  1  0  0  0  0
  5 25  1  0  0  0  0
M  CHG  1   1   1
M  END
