          23
 
C              3.38434340        1.18679368       -0.15413294
N              2.44968490        0.09348654       -0.07400558
C              2.78828526       -1.19008263       -0.08870083
N              1.69632933       -1.95312704        0.02835945
C              0.56711658       -1.12323359        0.12455244
C              1.09544473        0.19666557        0.05970688
C              0.32608833        1.44775546        0.08611978
O              0.84744690        2.55102548       -0.10192100
N             -0.95935444        1.24926641        0.33778036
C             -1.95910490        2.20919935        0.37441580
N             -0.66401146       -1.45842427        0.23175576
C             -1.18028192       -2.76989707        0.30088863
H              3.96135543        1.25516309        0.76912368
H              4.06754325        1.03558971       -0.98870015
H              2.82863383        2.11572237       -0.29360952
H              3.79416497       -1.55482815       -0.18244279
H             -1.70259811        3.11859942       -0.18800504
H             -2.87777772        1.75856217       -0.05118492
H             -2.19152858        2.48147951        1.41228904
H             -0.75813552       -3.33739330        1.13846105
H             -0.99513612       -3.32700868       -0.62529176
H             -2.25824163       -2.69450119        0.44391307
H              1.68969544       -2.96240026        0.03842230
