 xtb: 6.6.1 (8d0f1dd)
          06052420003D

 25 25  0     0  0            999 V2000
    3.0844    1.1395   -0.2681 C   0  0  0  0  0  0  0  0  0  0  0  0
    2.1407    0.0715   -0.0949 N   0  0  0  0  0  0  0  0  0  0  0  0
    2.4293   -1.1908    0.1373 C   0  0  0  0  0  0  0  0  0  0  0  0
    1.3108   -1.9183    0.2489 N   0  0  0  0  0  0  0  0  0  0  0  0
    0.1841   -1.0876    0.0817 C   0  0  0  0  0  0  0  0  0  0  0  0
    0.7524    0.2145   -0.1545 C   0  0  0  0  0  0  0  0  0  0  0  0
    0.1414    1.4436   -0.3805 C   0  0  0  0  0  0  0  0  0  0  0  0
    0.5640    2.5564   -0.5209 O   0  0  0  0  0  0  0  0  0  0  0  0
   -1.4223    1.2948   -0.4507 N   0  0  0  0  0  0  0  0  0  0  0  0
   -2.1290    1.7333    0.7417 C   0  0  0  0  0  0  0  0  0  0  0  0
   -1.9065    0.9431   -1.5355 C   0  0  0  0  0  0  0  0  0  0  0  0
   -2.2019    0.6059   -2.5893 O   0  0  0  0  0  0  0  0  0  0  0  0
   -1.0478   -1.3912    0.1480 N   0  0  0  0  0  0  0  0  0  0  0  0
   -1.5222   -2.7130    0.4145 C   0  0  0  0  0  0  0  0  0  0  0  0
    2.9741    1.8724    0.5324 H   0  0  0  0  0  0  0  0  0  0  0  0
    4.0953    0.7383   -0.2583 H   0  0  0  0  0  0  0  0  0  0  0  0
    2.9017    1.6516   -1.2129 H   0  0  0  0  0  0  0  0  0  0  0  0
    3.4253   -1.5839    0.2225 H   0  0  0  0  0  0  0  0  0  0  0  0
   -1.7672    2.7255    1.0133 H   0  0  0  0  0  0  0  0  0  0  0  0
   -3.1996    1.7700    0.5574 H   0  0  0  0  0  0  0  0  0  0  0  0
   -1.9180    1.0285    1.5448 H   0  0  0  0  0  0  0  0  0  0  0  0
   -0.9737   -3.2113    1.2194 H   0  0  0  0  0  0  0  0  0  0  0  0
   -1.4609   -3.3311   -0.4856 H   0  0  0  0  0  0  0  0  0  0  0  0
   -2.5695   -2.6325    0.7006 H   0  0  0  0  0  0  0  0  0  0  0  0
    1.2756   -2.9110    0.4197 H   0  0  0  0  0  0  0  0  0  0  0  0
  1  2  1  0  0  0  0
  2  3  4  0  0  0  0
  3  4  4  0  0  0  0
  4  5  1  0  0  0  0
  2  6  1  0  0  0  0
  5  6  1  0  0  0  0
  6  7  4  0  0  0  0
  7  8  2  0  0  0  0
  7  9  1  0  0  0  0
  9 10  1  0  0  0  0
  9 11  2  0  0  0  0
 11 12  2  0  0  0  0
  5 13  2  0  0  0  0
 13 14  1  0  0  0  0
  1 15  1  0  0  0  0
  1 16  1  0  0  0  0
  1 17  1  0  0  0  0
  3 18  1  0  0  0  0
 10 19  1  0  0  0  0
 10 20  1  0  0  0  0
 10 21  1  0  0  0  0
 14 22  1  0  0  0  0
 14 23  1  0  0  0  0
 14 24  1  0  0  0  0
  4 25  1  0  0  0  0
M  CHG  1   1   1
M  END
