 xtb: 6.6.1 (8d0f1dd)
          06052419573D

 25 25  0     0  0            999 V2000
    1.9887    1.8876    0.0923 C   0  0  0  0  0  0  0  0  0  0  0  0
    2.0299    0.4859    0.0415 N   0  0  0  0  0  0  0  0  0  0  0  0
    5.2321   -0.8576   -0.2698 C   0  0  0  0  0  0  0  0  0  0  0  0
    1.0270   -2.2791   -0.0254 N   0  0  0  0  0  0  0  0  0  0  0  0
    0.2575   -1.2819   -0.0042 C   0  0  0  0  0  0  0  0  0  0  0  0
    0.8021    0.0621    0.0350 C   0  0  0  0  0  0  0  0  0  0  0  0
   -0.0923    1.1812    0.0807 C   0  0  0  0  0  0  0  0  0  0  0  0
    0.5974    2.2966    0.1162 O   0  0  0  0  0  0  0  0  0  0  0  0
   -1.4035    1.0628    0.0829 N   0  0  0  0  0  0  0  0  0  0  0  0
   -2.3044    2.1983    0.1367 C   0  0  0  0  0  0  0  0  0  0  0  0
   -1.9980   -0.2333    0.0272 C   0  0  0  0  0  0  0  0  0  0  0  0
   -3.1926   -0.3224    0.0187 O   0  0  0  0  0  0  0  0  0  0  0  0
   -1.1448   -1.3130   -0.0137 N   0  0  0  0  0  0  0  0  0  0  0  0
   -1.7781   -2.6255   -0.0659 C   0  0  0  0  0  0  0  0  0  0  0  0
    2.4906    2.2741    0.9897 H   0  0  0  0  0  0  0  0  0  0  0  0
    6.2700   -0.6310   -0.3975 H   0  0  0  0  0  0  0  0  0  0  0  0
    2.4770    2.3389   -0.7822 H   0  0  0  0  0  0  0  0  0  0  0  0
    4.6985   -1.7818   -0.1953 H   0  0  0  0  0  0  0  0  0  0  0  0
   -1.7205    3.1129    0.1877 H   0  0  0  0  0  0  0  0  0  0  0  0
   -2.9395    2.2009   -0.7497 H   0  0  0  0  0  0  0  0  0  0  0  0
   -2.9486    2.1079    1.0118 H   0  0  0  0  0  0  0  0  0  0  0  0
   -1.4974   -3.2134    0.8090 H   0  0  0  0  0  0  0  0  0  0  0  0
   -1.4829   -3.1480   -0.9766 H   0  0  0  0  0  0  0  0  0  0  0  0
   -2.8572   -2.4877   -0.0694 H   0  0  0  0  0  0  0  0  0  0  0  0
    0.6496   -3.2160   -0.0487 H   0  0  0  0  0  0  0  0  0  0  0  0
  1  2  1  0  0  0  0
  4  5  2  0  0  0  0
  2  6  2  0  0  0  0
  5  6  1  0  0  0  0
  6  7  1  0  0  0  0
  1  8  1  0  0  0  0
  7  8  4  0  0  0  0
  7  9  4  0  0  0  0
  9 10  1  0  0  0  0
  9 11  1  0  0  0  0
 11 12  2  0  0  0  0
  5 13  1  0  0  0  0
 11 13  1  0  0  0  0
 13 14  1  0  0  0  0
  1 15  1  0  0  0  0
  3 16  1  0  0  0  0
  1 17  1  0  0  0  0
  3 18  1  0  0  0  0
 10 19  1  0  0  0  0
 10 20  1  0  0  0  0
 10 21  1  0  0  0  0
 14 22  1  0  0  0  0
 14 23  1  0  0  0  0
 14 24  1  0  0  0  0
  4 25  1  0  0  0  0
M  CHG  1   1   1
M  END
