 xtb: 6.6.1 (8d0f1dd)
          06052419573D

 25 26  0     0  0            999 V2000
    3.2900    1.2221    0.0363 C   0  0  0  0  0  0  0  0  0  0  0  0
    2.3679    0.1169    0.0082 N   0  0  0  0  0  0  0  0  0  0  0  0
    2.6623   -1.1759   -0.0005 C   0  0  0  0  0  0  0  0  0  0  0  0
    1.5314   -1.9077   -0.0279 N   0  0  0  0  0  0  0  0  0  0  0  0
    0.4714   -1.0407   -0.0298 C   0  0  0  0  0  0  0  0  0  0  0  0
    0.9997    0.2406   -0.0108 C   0  0  0  0  0  0  0  0  0  0  0  0
    0.1421    1.4033    0.0220 C   0  0  0  0  0  0  0  0  0  0  0  0
    0.4950    2.5642    0.0448 O   0  0  0  0  0  0  0  0  0  0  0  0
   -1.2031    1.0141    0.0319 N   0  0  0  0  0  0  0  0  0  0  0  0
   -2.1394    2.1232    0.0904 C   0  0  0  0  0  0  0  0  0  0  0  0
   -1.7298   -0.2243    0.0029 C   0  0  0  0  0  0  0  0  0  0  0  0
   -2.8170   -2.5704    0.0585 O   0  0  0  0  0  0  0  0  0  0  0  0
   -0.8541   -1.2744   -0.0422 N   0  0  0  0  0  0  0  0  0  0  0  0
   -1.3425   -2.6223    0.0563 C   0  0  0  0  0  0  0  0  0  0  0  0
    3.9231    1.1643    0.9216 H   0  0  0  0  0  0  0  0  0  0  0  0
    3.9224    1.2134   -0.8515 H   0  0  0  0  0  0  0  0  0  0  0  0
    2.7145    2.1476    0.0613 H   0  0  0  0  0  0  0  0  0  0  0  0
    3.6537   -1.5838    0.0125 H   0  0  0  0  0  0  0  0  0  0  0  0
   -1.9161    2.8284   -0.7098 H   0  0  0  0  0  0  0  0  0  0  0  0
   -3.1509    1.7422   -0.0095 H   0  0  0  0  0  0  0  0  0  0  0  0
   -2.0272    2.6486    1.0395 H   0  0  0  0  0  0  0  0  0  0  0  0
   -3.1752   -2.0365   -0.7032 H   0  0  0  0  0  0  0  0  0  0  0  0
   -1.0622   -3.1883   -0.8346 H   0  0  0  0  0  0  0  0  0  0  0  0
   -3.0660   -2.0714    0.8635 H   0  0  0  0  0  0  0  0  0  0  0  0
    1.4703   -2.9149    0.0012 H   0  0  0  0  0  0  0  0  0  0  0  0
  1  2  1  0  0  0  0
  2  3  4  0  0  0  0
  3  4  4  0  0  0  0
  4  5  1  0  0  0  0
  2  6  1  0  0  0  0
  5  6  4  0  0  0  0
  6  7  1  0  0  0  0
  7  8  2  0  0  0  0
  7  9  1  0  0  0  0
  9 10  1  0  0  0  0
  9 11  4  0  0  0  0
  5 13  4  0  0  0  0
 11 13  4  0  0  0  0
 12 14  1  0  0  0  0
 13 14  1  0  0  0  0
  1 15  1  0  0  0  0
  1 16  1  0  0  0  0
  1 17  1  0  0  0  0
  3 18  1  0  0  0  0
 10 19  1  0  0  0  0
 10 20  1  0  0  0  0
 10 21  1  0  0  0  0
 12 22  1  0  0  0  0
 14 23  1  0  0  0  0
 12 24  1  0  0  0  0
  4 25  1  0  0  0  0
M  CHG  1   1   1
M  END
