          21
 
C              3.38415395        0.79253545        0.04313684
N              2.37965807       -0.23765364        0.00000779
C              2.76778410       -1.55823131       -0.00900783
N              2.02056519       -2.56884218       -0.02091404
C              0.12780309       -1.03333672       -0.00713460
C              1.02893735       -0.00639413       -0.00016282
C              0.36880915        1.31655140       -0.00768350
O              0.98545755        2.36567570       -0.02037131
N             -1.01485665        1.28854642       -0.00205568
C             -1.72288871        2.55399583       -0.00156436
C             -1.82579976        0.14397081       -0.00051562
O             -3.02705041        0.20951655        0.00637855
N             -1.13078983       -1.03992917       -0.00753409
H              3.89465314        0.78438479        1.01040485
H              4.12546160        0.62679885       -0.74094263
H              2.92231907        1.76998251       -0.09788796
H              3.83999411       -1.72393567       -0.00534386
H             -0.99402492        3.36392383        0.00804846
H             -2.35426412        2.62492296       -0.88989781
H             -2.36834973        2.61477812        0.87723920
H              0.97984947       -2.42172024       -0.02227811
