          24
 
C              3.22633450        1.12009853        0.00308895
N              2.26961683        0.04652830       -0.00211990
C              2.53387413       -1.25678653       -0.00313146
N              1.37727007       -1.96012374       -0.00010370
C              0.34340792       -1.07220801        0.00250687
C              0.89934921        0.20138138        0.00337136
C              0.09983844        1.38875929       -0.00317446
O              0.47778389        2.53876070       -0.01464495
N             -1.30336600        1.07251368        0.00235062
C             -2.16135269        2.10158673        0.00754723
C             -1.87180110       -0.23396269       -0.00153427
O             -3.06033183       -0.39526152       -0.00290066
N             -0.98417344       -1.30660972       -0.00277906
C             -1.51762748       -2.65726078       -0.00407266
H              3.72323952        1.18151639        0.97243694
H              3.97914402        0.95852759       -0.76743646
H              2.70316114        2.05715429       -0.18239617
H              3.51281496       -1.69243898       -0.00611863
H             -1.76567262        3.10902147        0.03180540
H             -3.21463887        1.89489246       -0.00210107
H             -1.21670417       -3.18536149        0.90079105
H             -1.17935493       -3.19762596       -0.88800795
H             -2.60382420       -2.58380247       -0.02678432
H              1.30781885       -2.96745883       -0.00052211
