 xtb: 6.6.1 (8d0f1dd)
          04062411133D

 72 72  0     0  0            999 V2000
   -2.2526    2.9459    2.3805 N   0  0  0  0  0  0  0  0  0  0  0  0
   -2.1676    2.2156    1.3703 C   0  0  0  0  0  0  0  0  0  0  0  0
   -3.2860    1.9926    0.3882 C   0  0  0  0  0  0  0  0  0  0  0  0
   -3.7499    0.5474    0.4689 C   0  0  0  0  0  0  0  0  0  0  0  0
   -4.6298    0.0471   -0.4928 C   0  0  0  0  0  0  0  0  0  0  0  0
   -5.0888   -1.2590   -0.4462 C   0  0  0  0  0  0  0  0  0  0  0  0
   -5.9381   -1.8172   -1.3332 O   0  0  0  0  0  0  0  0  0  0  0  0
   -6.5068   -1.0138   -2.3407 C   0  0  0  0  0  0  0  0  0  0  0  0
   -4.6527   -2.1173    0.5997 C   0  0  0  0  0  0  0  0  0  0  0  0
   -5.1400   -3.3737    0.5627 O   0  0  0  0  0  0  0  0  0  0  0  0
   -4.8175   -4.2653    1.6041 C   0  0  0  0  0  0  0  0  0  0  0  0
   -3.7855   -1.6122    1.5559 C   0  0  0  0  0  0  0  0  0  0  0  0
   -3.3431   -0.2969    1.4915 C   0  0  0  0  0  0  0  0  0  0  0  0
   -2.6925    2.2930   -1.0148 C   0  0  0  0  0  0  0  0  0  0  0  0
   -1.7901    1.1912   -1.6006 C   0  0  0  0  0  0  0  0  0  0  0  0
   -0.4567    1.1011   -0.9522 C   0  0  0  0  0  0  0  0  0  0  0  0
    0.1491   -0.0186   -0.5714 N   0  0  0  0  0  0  0  0  0  0  0  0
    1.3960   -0.0532   -0.1193 C   0  0  0  0  0  0  0  0  0  0  0  0
    4.4479   -0.8732   -2.8050 C   0  0  0  0  0  0  0  0  0  0  0  0
    5.4072   -0.5018   -1.8942 C   0  0  0  0  0  0  0  0  0  0  0  0
    6.0018    0.7913   -1.9317 C   0  0  0  0  0  0  0  0  0  0  0  0
    6.9737    1.1542   -1.0362 C   0  0  0  0  0  0  0  0  0  0  0  0
    7.4103    0.2648   -0.0485 C   0  0  0  0  0  0  0  0  0  0  0  0
    8.3581    0.5142    0.8622 O   0  0  0  0  0  0  0  0  0  0  0  0
    9.0184    1.7594    0.8663 C   0  0  0  0  0  0  0  0  0  0  0  0
    6.8204   -1.0391    0.0242 C   0  0  0  0  0  0  0  0  0  0  0  0
    7.3008   -1.8154    1.0181 O   0  0  0  0  0  0  0  0  0  0  0  0
    6.8255   -3.1351    1.1409 C   0  0  0  0  0  0  0  0  0  0  0  0
    5.8512   -1.3977   -0.8769 C   0  0  0  0  0  0  0  0  0  0  0  0
   -0.5806   -1.2744   -0.6289 C   0  0  0  0  0  0  0  0  0  0  0  0
   -4.5196    2.9103    0.6414 C   0  0  0  0  0  0  0  0  0  0  0  0
   -5.1980    2.5867    1.9704 C   0  0  0  0  0  0  0  0  0  0  0  0
   -4.1848    4.3981    0.5838 C   0  0  0  0  0  0  0  0  0  0  0  0
   -4.9680    0.6950   -1.2842 H   0  0  0  0  0  0  0  0  0  0  0  0
   -7.0626   -0.1727   -1.9157 H   0  0  0  0  0  0  0  0  0  0  0  0
   -7.1933   -1.6636   -2.8797 H   0  0  0  0  0  0  0  0  0  0  0  0
   -5.7469   -0.6389   -3.0342 H   0  0  0  0  0  0  0  0  0  0  0  0
   -5.1315   -3.8769    2.5775 H   0  0  0  0  0  0  0  0  0  0  0  0
   -5.3663   -5.1792    1.3863 H   0  0  0  0  0  0  0  0  0  0  0  0
   -3.7448   -4.4842    1.6270 H   0  0  0  0  0  0  0  0  0  0  0  0
   -3.4515   -2.2344    2.3705 H   0  0  0  0  0  0  0  0  0  0  0  0
   -2.6908    0.0667    2.2703 H   0  0  0  0  0  0  0  0  0  0  0  0
   -3.5159    2.4541   -1.7108 H   0  0  0  0  0  0  0  0  0  0  0  0
   -2.1236    3.2220   -0.9599 H   0  0  0  0  0  0  0  0  0  0  0  0
   -2.3198    0.2417   -1.5726 H   0  0  0  0  0  0  0  0  0  0  0  0
   -1.6330    1.4525   -2.6552 H   0  0  0  0  0  0  0  0  0  0  0  0
   -1.2453    1.6863    1.0723 H   0  0  0  0  0  0  0  0  0  0  0  0
    0.1400    2.0011   -0.9190 H   0  0  0  0  0  0  0  0  0  0  0  0
    1.8245   -0.9780    0.2056 H   0  0  0  0  0  0  0  0  0  0  0  0
    1.9713    0.8496   -0.0725 H   0  0  0  0  0  0  0  0  0  0  0  0
    4.1240   -0.2033   -3.5797 H   0  0  0  0  0  0  0  0  0  0  0  0
    4.0137   -1.8559   -2.7893 H   0  0  0  0  0  0  0  0  0  0  0  0
    5.6803    1.4868   -2.6908 H   0  0  0  0  0  0  0  0  0  0  0  0
    7.4093    2.1393   -1.0987 H   0  0  0  0  0  0  0  0  0  0  0  0
    8.3189    2.5844    1.0345 H   0  0  0  0  0  0  0  0  0  0  0  0
    9.5638    1.9265   -0.0677 H   0  0  0  0  0  0  0  0  0  0  0  0
    9.7254    1.7116    1.6934 H   0  0  0  0  0  0  0  0  0  0  0  0
    7.3586   -3.5615    1.9876 H   0  0  0  0  0  0  0  0  0  0  0  0
    5.7503   -3.1557    1.3421 H   0  0  0  0  0  0  0  0  0  0  0  0
    7.0400   -3.7221    0.2432 H   0  0  0  0  0  0  0  0  0  0  0  0
    5.4062   -2.3791   -0.8477 H   0  0  0  0  0  0  0  0  0  0  0  0
   -0.8220   -1.5229   -1.6622 H   0  0  0  0  0  0  0  0  0  0  0  0
   -1.5030   -1.2023   -0.0506 H   0  0  0  0  0  0  0  0  0  0  0  0
    0.0306   -2.0719   -0.2126 H   0  0  0  0  0  0  0  0  0  0  0  0
   -5.2345    2.6941   -0.1612 H   0  0  0  0  0  0  0  0  0  0  0  0
   -4.5181    2.7859    2.7930 H   0  0  0  0  0  0  0  0  0  0  0  0
   -5.5078    1.5450    2.0118 H   0  0  0  0  0  0  0  0  0  0  0  0
   -6.0795    3.2112    2.0909 H   0  0  0  0  0  0  0  0  0  0  0  0
   -3.4825    4.6561    1.3703 H   0  0  0  0  0  0  0  0  0  0  0  0
   -3.7667    4.6843   -0.3774 H   0  0  0  0  0  0  0  0  0  0  0  0
   -5.0939    4.9738    0.7361 H   0  0  0  0  0  0  0  0  0  0  0  0
   -1.4288    3.0497    2.9643 H   0  0  0  0  0  0  0  0  0  0  0  0
  1  2  2  0  0  0  0
  2  3  1  0  0  0  0
  3  4  1  0  0  0  0
  4  5  4  0  0  0  0
  5  6  4  0  0  0  0
  6  7  1  0  0  0  0
  7  8  1  0  0  0  0
  6  9  4  0  0  0  0
  9 10  1  0  0  0  0
 10 11  1  0  0  0  0
  9 12  4  0  0  0  0
  4 13  4  0  0  0  0
 12 13  4  0  0  0  0
  3 14  1  0  0  0  0
 14 15  1  0  0  0  0
 15 16  1  0  0  0  0
 16 17  4  0  0  0  0
 17 18  4  0  0  0  0
 19 20  4  0  0  0  0
 20 21  4  0  0  0  0
 21 22  2  0  0  0  0
 22 23  4  0  0  0  0
 23 24  1  0  0  0  0
 24 25  1  0  0  0  0
 23 26  1  0  0  0  0
 26 27  1  0  0  0  0
 27 28  1  0  0  0  0
 20 29  1  0  0  0  0
 26 29  4  0  0  0  0
 17 30  1  0  0  0  0
  3 31  1  0  0  0  0
 31 32  1  0  0  0  0
 31 33  1  0  0  0  0
  5 34  1  0  0  0  0
  8 35  1  0  0  0  0
  8 36  1  0  0  0  0
  8 37  1  0  0  0  0
 11 38  1  0  0  0  0
 11 39  1  0  0  0  0
 11 40  1  0  0  0  0
 12 41  1  0  0  0  0
 13 42  1  0  0  0  0
 14 43  1  0  0  0  0
 14 44  1  0  0  0  0
 15 45  1  0  0  0  0
 15 46  1  0  0  0  0
  2 47  1  0  0  0  0
 16 48  1  0  0  0  0
 18 49  1  0  0  0  0
 18 50  1  0  0  0  0
 19 51  1  0  0  0  0
 19 52  1  0  0  0  0
 21 53  1  0  0  0  0
 22 54  1  0  0  0  0
 25 55  1  0  0  0  0
 25 56  1  0  0  0  0
 25 57  1  0  0  0  0
 28 58  1  0  0  0  0
 28 59  1  0  0  0  0
 28 60  1  0  0  0  0
 29 61  1  0  0  0  0
 30 62  1  0  0  0  0
 30 63  1  0  0  0  0
 30 64  1  0  0  0  0
 31 65  1  0  0  0  0
 32 66  1  0  0  0  0
 32 67  1  0  0  0  0
 32 68  1  0  0  0  0
 33 69  1  0  0  0  0
 33 70  1  0  0  0  0
 33 71  1  0  0  0  0
  1 72  1  0  0  0  0
M  CHG  1   1   1
M  END
