 xtb: 6.6.1 (8d0f1dd)
          06052419583D

 25 24  0     0  0            999 V2000
    4.0177   -0.0994   -0.7139 C   0  0  0  0  0  0  0  0  0  0  0  0
    2.7337   -0.7111   -0.5011 N   0  0  0  0  0  0  0  0  0  0  0  0
    1.9179   -0.4296    0.5194 C   0  0  0  0  0  0  0  0  0  0  0  0
    0.8077   -1.1556    0.4000 N   0  0  0  0  0  0  0  0  0  0  0  0
    0.9449   -1.9165   -0.7479 C   0  0  0  0  0  0  0  0  0  0  0  0
    2.1800   -1.6394   -1.3285 C   0  0  0  0  0  0  0  0  0  0  0  0
    1.6747    2.7059    0.1957 C   0  0  0  0  0  0  0  0  0  0  0  0
    1.2060    3.7312    0.1952 O   0  0  0  0  0  0  0  0  0  0  0  0
   -2.8417    1.7500    1.0093 N   0  0  0  0  0  0  0  0  0  0  0  0
   -3.8882    2.6887    0.9374 C   0  0  0  0  0  0  0  0  0  0  0  0
   -2.4100    0.6595    1.0929 C   0  0  0  0  0  0  0  0  0  0  0  0
   -1.7709   -0.3189    1.1746 O   0  0  0  0  0  0  0  0  0  0  0  0
    0.0119   -2.7998   -1.2072 N   0  0  0  0  0  0  0  0  0  0  0  0
   -1.1481   -3.1078   -0.6857 C   0  0  0  0  0  0  0  0  0  0  0  0
    4.7275   -0.4203    0.0491 H   0  0  0  0  0  0  0  0  0  0  0  0
    4.3849   -0.4026   -1.6915 H   0  0  0  0  0  0  0  0  0  0  0  0
    3.9225    0.9858   -0.6757 H   0  0  0  0  0  0  0  0  0  0  0  0
    2.1245    0.2704    1.3039 H   0  0  0  0  0  0  0  0  0  0  0  0
   -3.4423    3.6675    0.7590 H   0  0  0  0  0  0  0  0  0  0  0  0
   -4.5655    2.4467    0.1160 H   0  0  0  0  0  0  0  0  0  0  0  0
   -4.4460    2.7136    1.8750 H   0  0  0  0  0  0  0  0  0  0  0  0
   -1.4968   -2.6351    0.2153 H   0  0  0  0  0  0  0  0  0  0  0  0
    0.3055   -3.2637   -2.0651 H   0  0  0  0  0  0  0  0  0  0  0  0
   -1.7668   -3.8380   -1.1727 H   0  0  0  0  0  0  0  0  0  0  0  0
   -0.0227   -1.0635    0.9776 H   0  0  0  0  0  0  0  0  0  0  0  0
  1  2  1  0  0  0  0
  2  3  4  0  0  0  0
  3  4  4  0  0  0  0
  4  5  1  0  0  0  0
  2  6  4  0  0  0  0
  5  6  4  0  0  0  0
  7  8  3  0  0  0  0
  9 10  1  0  0  0  0
  9 11  2  0  0  0  0
  9 12  1  0  0  0  0
 11 12  2  0  0  0  0
  5 13  1  0  0  0  0
 13 14  2  0  0  0  0
  1 15  1  0  0  0  0
  1 16  1  0  0  0  0
  1 17  1  0  0  0  0
  3 18  1  0  0  0  0
 10 19  1  0  0  0  0
 10 20  1  0  0  0  0
 10 21  1  0  0  0  0
 14 22  1  0  0  0  0
 13 23  1  0  0  0  0
 14 24  1  0  0  0  0
  4 25  1  0  0  0  0
M  CHG  1   1   1
M  END
