          21
 
C              3.32833529        1.02512599        0.05802705
N              2.39164413       -0.06529639       -0.00820443
C              2.67636040       -1.35298937       -0.09740473
N              1.53499366       -2.07564136       -0.10134896
C              0.48098296       -1.20656722       -0.01054352
C              1.03231422        0.06777910        0.04945362
C              0.15916397        1.26358683        0.09051804
O              0.60844993        2.39097169        0.08213389
N             -1.12977877        0.91366203        0.11562732
C             -1.71318090       -0.27815365        0.09321256
O             -2.89663840       -0.47622906        0.12227923
N             -0.82690934       -1.44998510        0.01362893
C             -1.39646273       -2.77428303       -0.00483843
H              3.84696297        1.01562437        1.01693012
H              4.06291129        0.94367558       -0.74176361
H              2.77580044        1.96088852       -0.03636109
H              3.66177064       -1.77101657       -0.15943867
H             -1.04742568       -3.35726773        0.84836752
H             -1.15317142       -3.29079853       -0.93543506
H             -2.47798660       -2.65455464        0.06146324
H              1.48617984       -3.08098767       -0.17625334
