 xtb: 6.6.1 (8d0f1dd)
          06052419583D

 25 26  0     0  0            999 V2000
    3.1792    1.0048   -0.0401 C   0  0  0  0  0  0  0  0  0  0  0  0
    2.1707   -0.0040   -0.0250 N   0  0  0  0  0  0  0  0  0  0  0  0
    2.4415   -1.4404   -0.0006 C   0  0  0  0  0  0  0  0  0  0  0  0
    1.1944   -2.0911   -0.0022 N   0  0  0  0  0  0  0  0  0  0  0  0
    0.2790   -1.1719    0.0001 C   0  0  0  0  0  0  0  0  0  0  0  0
    0.8777    0.1481   -0.0157 C   0  0  0  0  0  0  0  0  0  0  0  0
    0.0448    1.3657   -0.0247 C   0  0  0  0  0  0  0  0  0  0  0  0
    0.5000    2.4839   -0.0550 O   0  0  0  0  0  0  0  0  0  0  0  0
   -1.2937    1.0666    0.0084 N   0  0  0  0  0  0  0  0  0  0  0  0
   -2.2313    2.1815    0.0140 C   0  0  0  0  0  0  0  0  0  0  0  0
   -1.8983   -0.2025    0.0190 C   0  0  0  0  0  0  0  0  0  0  0  0
   -3.0885   -0.3152    0.0318 O   0  0  0  0  0  0  0  0  0  0  0  0
   -1.0546   -1.3170    0.0178 N   0  0  0  0  0  0  0  0  0  0  0  0
   -1.6332   -2.6482    0.0327 C   0  0  0  0  0  0  0  0  0  0  0  0
    3.8049    0.9217    0.8514 H   0  0  0  0  0  0  0  0  0  0  0  0
    3.8232    0.8779   -0.9124 H   0  0  0  0  0  0  0  0  0  0  0  0
    2.7135    1.9905   -0.0677 H   0  0  0  0  0  0  0  0  0  0  0  0
    3.0025   -1.7114    0.9059 H   0  0  0  0  0  0  0  0  0  0  0  0
   -1.6727    3.1012    0.1681 H   0  0  0  0  0  0  0  0  0  0  0  0
   -2.7631    2.2246   -0.9368 H   0  0  0  0  0  0  0  0  0  0  0  0
   -2.9619    2.0369    0.8084 H   0  0  0  0  0  0  0  0  0  0  0  0
   -1.2840   -3.1882    0.9118 H   0  0  0  0  0  0  0  0  0  0  0  0
   -1.3240   -3.1926   -0.8586 H   0  0  0  0  0  0  0  0  0  0  0  0
   -2.7162   -2.5508    0.0562 H   0  0  0  0  0  0  0  0  0  0  0  0
    3.0505   -1.7516   -0.8553 H   0  0  0  0  0  0  0  0  0  0  0  0
  1  2  1  0  0  0  0
  2  3  1  0  0  0  0
  3  4  1  0  0  0  0
  4  5  2  0  0  0  0
  2  6  2  0  0  0  0
  5  6  1  0  0  0  0
  6  7  1  0  0  0  0
  7  8  2  0  0  0  0
  7  9  1  0  0  0  0
  9 10  1  0  0  0  0
  9 11  1  0  0  0  0
 11 12  2  0  0  0  0
  5 13  4  0  0  0  0
 11 13  1  0  0  0  0
 13 14  1  0  0  0  0
  1 15  1  0  0  0  0
  1 16  1  0  0  0  0
  1 17  1  0  0  0  0
  3 18  1  0  0  0  0
 10 19  1  0  0  0  0
 10 20  1  0  0  0  0
 10 21  1  0  0  0  0
 14 22  1  0  0  0  0
 14 23  1  0  0  0  0
 14 24  1  0  0  0  0
  3 25  1  0  0  0  0
M  CHG  1   1   1
M  END
