 xtb: 6.6.1 (8d0f1dd)
          06052420003D

 25 24  0     0  0            999 V2000
    4.0521    1.4654    0.0772 C   0  0  0  0  0  0  0  0  0  0  0  0
    3.3649    0.2091   -0.0033 N   0  0  0  0  0  0  0  0  0  0  0  0
    3.8939   -1.0058   -0.0396 C   0  0  0  0  0  0  0  0  0  0  0  0
    2.8989   -1.9067   -0.1125 N   0  0  0  0  0  0  0  0  0  0  0  0
    1.6623   -1.3476   -0.1286 C   0  0  0  0  0  0  0  0  0  0  0  0
    1.9676    0.0539   -0.0558 C   0  0  0  0  0  0  0  0  0  0  0  0
    1.0883    1.0644   -0.0396 C   0  0  0  0  0  0  0  0  0  0  0  0
    0.2485    1.8634   -0.0336 O   0  0  0  0  0  0  0  0  0  0  0  0
   -2.7320    1.6305   -0.0270 N   0  0  0  0  0  0  0  0  0  0  0  0
   -3.3028    2.9115    0.0791 C   0  0  0  0  0  0  0  0  0  0  0  0
   -2.6322    0.4822    0.2051 C   0  0  0  0  0  0  0  0  0  0  0  0
   -2.3847   -0.6549    0.3142 O   0  0  0  0  0  0  0  0  0  0  0  0
   -2.6382   -3.5229   -0.1484 N   0  0  0  0  0  0  0  0  0  0  0  0
   -3.7057   -4.2033   -0.2202 C   0  0  0  0  0  0  0  0  0  0  0  0
    3.7820    1.9863    0.9983 H   0  0  0  0  0  0  0  0  0  0  0  0
    5.1270    1.2963    0.0675 H   0  0  0  0  0  0  0  0  0  0  0  0
    3.7820    2.0975   -0.7708 H   0  0  0  0  0  0  0  0  0  0  0  0
    4.9438   -1.2225   -0.0136 H   0  0  0  0  0  0  0  0  0  0  0  0
   -2.5124    3.6445   -0.0813 H   0  0  0  0  0  0  0  0  0  0  0  0
   -4.0678    3.0363   -0.6891 H   0  0  0  0  0  0  0  0  0  0  0  0
   -3.7466    3.0634    1.0643 H   0  0  0  0  0  0  0  0  0  0  0  0
   -2.5657   -2.5254    0.0986 H   0  0  0  0  0  0  0  0  0  0  0  0
   -1.7500   -3.9714   -0.3580 H   0  0  0  0  0  0  0  0  0  0  0  0
   -4.6541   -3.7204    0.0008 H   0  0  0  0  0  0  0  0  0  0  0  0
    3.0413   -2.9057   -0.1525 H   0  0  0  0  0  0  0  0  0  0  0  0
  1  2  1  0  0  0  0
  2  3  4  0  0  0  0
  3  4  4  0  0  0  0
  4  5  4  0  0  0  0
  2  6  1  0  0  0  0
  5  6  4  0  0  0  0
  6  7  4  0  0  0  0
  7  8  2  0  0  0  0
  9 10  1  0  0  0  0
  9 11  2  0  0  0  0
  9 12  1  0  0  0  0
 11 12  2  0  0  0  0
 13 14  2  0  0  0  0
  1 15  1  0  0  0  0
  1 16  1  0  0  0  0
  1 17  1  0  0  0  0
  3 18  1  0  0  0  0
 10 19  1  0  0  0  0
 10 20  1  0  0  0  0
 10 21  1  0  0  0  0
 13 22  1  0  0  0  0
 13 23  1  0  0  0  0
 14 24  1  0  0  0  0
  4 25  1  0  0  0  0
M  CHG  1   1   1
M  END
