 xtb: 6.6.1 (8d0f1dd)
          06052420003D

 25 25  0     0  0            999 V2000
    3.1775    0.8474    0.0596 C   0  0  0  0  0  0  0  0  0  0  0  0
    2.2699   -0.1210    0.0355 N   0  0  0  0  0  0  0  0  0  0  0  0
    2.4847   -1.4560    0.0175 C   0  0  0  0  0  0  0  0  0  0  0  0
    1.2932   -2.1157   -0.0034 N   0  0  0  0  0  0  0  0  0  0  0  0
    0.2967   -1.1912   -0.0007 C   0  0  0  0  0  0  0  0  0  0  0  0
    0.8885    0.0602    0.0254 C   0  0  0  0  0  0  0  0  0  0  0  0
    0.1092    1.2763    0.0398 C   0  0  0  0  0  0  0  0  0  0  0  0
    0.5511    2.4008    0.0555 O   0  0  0  0  0  0  0  0  0  0  0  0
   -1.2595    0.9972    0.0349 N   0  0  0  0  0  0  0  0  0  0  0  0
   -2.1733    2.1294    0.0728 C   0  0  0  0  0  0  0  0  0  0  0  0
   -1.8745   -0.2411    0.0060 C   0  0  0  0  0  0  0  0  0  0  0  0
   -3.0669   -0.3670    0.0007 O   0  0  0  0  0  0  0  0  0  0  0  0
   -1.0333   -1.3756   -0.0164 N   0  0  0  0  0  0  0  0  0  0  0  0
   -1.6317   -2.6957   -0.0447 C   0  0  0  0  0  0  0  0  0  0  0  0
    2.8369    1.8678    0.0713 H   0  0  0  0  0  0  0  0  0  0  0  0
    4.2197    0.5918    0.0539 H   0  0  0  0  0  0  0  0  0  0  0  0
    4.0369    4.0943   -0.4662 H   0  0  0  0  0  0  0  0  0  0  0  0
    3.4442   -1.9283    0.0263 H   0  0  0  0  0  0  0  0  0  0  0  0
   -1.5810    3.0406    0.1073 H   0  0  0  0  0  0  0  0  0  0  0  0
   -2.8088    2.1243   -0.8130 H   0  0  0  0  0  0  0  0  0  0  0  0
   -2.8129    2.0582    0.9518 H   0  0  0  0  0  0  0  0  0  0  0  0
   -1.3267   -3.2717    0.8296 H   0  0  0  0  0  0  0  0  0  0  0  0
   -1.3534   -3.2223   -0.9584 H   0  0  0  0  0  0  0  0  0  0  0  0
   -2.7133   -2.5655   -0.0258 H   0  0  0  0  0  0  0  0  0  0  0  0
    1.1872   -3.1190   -0.0281 H   0  0  0  0  0  0  0  0  0  0  0  0
  1  2  4  0  0  0  0
  2  3  4  0  0  0  0
  3  4  4  0  0  0  0
  4  5  1  0  0  0  0
  2  6  1  0  0  0  0
  5  6  4  0  0  0  0
  6  7  1  0  0  0  0
  7  8  2  0  0  0  0
  7  9  1  0  0  0  0
  9 10  1  0  0  0  0
  9 11  1  0  0  0  0
 11 12  2  0  0  0  0
  5 13  4  0  0  0  0
 11 13  1  0  0  0  0
 13 14  1  0  0  0  0
  1 15  1  0  0  0  0
  1 16  1  0  0  0  0
  3 18  1  0  0  0  0
 10 19  1  0  0  0  0
 10 20  1  0  0  0  0
 10 21  1  0  0  0  0
 14 22  1  0  0  0  0
 14 23  1  0  0  0  0
 14 24  1  0  0  0  0
  4 25  1  0  0  0  0
M  CHG  1   1   1
M  END
