 xtb: 6.6.1 (8d0f1dd)
          06052420003D

 25 25  0     0  0            999 V2000
    3.2678    1.0534   -0.0379 C   0  0  0  0  0  0  0  0  0  0  0  0
    2.3186   -0.0269   -0.0290 N   0  0  0  0  0  0  0  0  0  0  0  0
    2.5922   -1.3281   -0.0047 C   0  0  0  0  0  0  0  0  0  0  0  0
    1.4403   -2.0397    0.0191 N   0  0  0  0  0  0  0  0  0  0  0  0
    0.4007   -1.1588    0.0093 C   0  0  0  0  0  0  0  0  0  0  0  0
    0.9470    0.1184   -0.0206 C   0  0  0  0  0  0  0  0  0  0  0  0
    0.1399    1.2998   -0.0571 C   0  0  0  0  0  0  0  0  0  0  0  0
    0.5120    2.4515   -0.1101 O   0  0  0  0  0  0  0  0  0  0  0  0
   -1.2609    0.9763   -0.0299 N   0  0  0  0  0  0  0  0  0  0  0  0
   -2.1258    1.9968   -0.0546 C   0  0  0  0  0  0  0  0  0  0  0  0
   -1.8203   -0.3359    0.0127 C   0  0  0  0  0  0  0  0  0  0  0  0
   -3.0087   -0.5023    0.0339 O   0  0  0  0  0  0  0  0  0  0  0  0
   -0.9259   -1.4015    0.0248 N   0  0  0  0  0  0  0  0  0  0  0  0
   -1.4505   -2.7555    0.0443 C   0  0  0  0  0  0  0  0  0  0  0  0
    3.7308    1.1593    0.9447 H   0  0  0  0  0  0  0  0  0  0  0  0
    4.0471    0.8654   -0.7751 H   0  0  0  0  0  0  0  0  0  0  0  0
    2.7449    1.9782   -0.2785 H   0  0  0  0  0  0  0  0  0  0  0  0
    3.5726   -1.7605   -0.0062 H   0  0  0  0  0  0  0  0  0  0  0  0
   -3.6426    4.7629    0.2860 H   0  0  0  0  0  0  0  0  0  0  0  0
   -1.7272    2.9940   -0.0893 H   0  0  0  0  0  0  0  0  0  0  0  0
   -3.1775    1.7836   -0.0328 H   0  0  0  0  0  0  0  0  0  0  0  0
   -1.1473   -3.2685    0.9572 H   0  0  0  0  0  0  0  0  0  0  0  0
   -1.1076   -3.3068   -0.8313 H   0  0  0  0  0  0  0  0  0  0  0  0
   -2.5371   -2.6896    0.0197 H   0  0  0  0  0  0  0  0  0  0  0  0
    1.3780   -3.0473    0.0367 H   0  0  0  0  0  0  0  0  0  0  0  0
  1  2  1  0  0  0  0
  2  3  4  0  0  0  0
  3  4  4  0  0  0  0
  4  5  1  0  0  0  0
  2  6  1  0  0  0  0
  5  6  4  0  0  0  0
  6  7  1  0  0  0  0
  7  8  2  0  0  0  0
  7  9  1  0  0  0  0
  9 10  4  0  0  0  0
  9 11  1  0  0  0  0
 11 12  2  0  0  0  0
  5 13  1  0  0  0  0
 11 13  1  0  0  0  0
 13 14  1  0  0  0  0
  1 15  1  0  0  0  0
  1 16  1  0  0  0  0
  1 17  1  0  0  0  0
  3 18  1  0  0  0  0
 10 20  1  0  0  0  0
 10 21  1  0  0  0  0
 14 22  1  0  0  0  0
 14 23  1  0  0  0  0
 14 24  1  0  0  0  0
  4 25  1  0  0  0  0
M  CHG  1   1   1
M  END
