 xtb: 6.6.1 (8d0f1dd)
          06052419593D

 25 25  0     0  0            999 V2000
    3.3660    1.0469    0.0564 C   0  0  0  0  0  0  0  0  0  0  0  0
    2.3746    0.0057    0.0269 N   0  0  0  0  0  0  0  0  0  0  0  0
    2.5984   -1.3044   -0.0205 C   0  0  0  0  0  0  0  0  0  0  0  0
    1.4200   -1.9712   -0.0253 N   0  0  0  0  0  0  0  0  0  0  0  0
    0.4150   -1.0527    0.0196 C   0  0  0  0  0  0  0  0  0  0  0  0
    1.0100    0.2027    0.0562 C   0  0  0  0  0  0  0  0  0  0  0  0
    0.2513    1.4137    0.0859 C   0  0  0  0  0  0  0  0  0  0  0  0
    0.6654    2.5504    0.1066 O   0  0  0  0  0  0  0  0  0  0  0  0
   -1.1666    1.1441    0.0571 N   0  0  0  0  0  0  0  0  0  0  0  0
   -1.9902    2.2012    0.0401 C   0  0  0  0  0  0  0  0  0  0  0  0
   -1.7752   -0.1449    0.0352 C   0  0  0  0  0  0  0  0  0  0  0  0
   -2.9686   -0.2701    0.0281 O   0  0  0  0  0  0  0  0  0  0  0  0
   -0.9194   -1.2444    0.0185 N   0  0  0  0  0  0  0  0  0  0  0  0
   -1.4918   -2.5794    0.0034 C   0  0  0  0  0  0  0  0  0  0  0  0
    3.8190    1.1105    1.0475 H   0  0  0  0  0  0  0  0  0  0  0  0
    4.1457    0.8447   -0.6753 H   0  0  0  0  0  0  0  0  0  0  0  0
    2.8842    1.9978   -0.1653 H   0  0  0  0  0  0  0  0  0  0  0  0
    3.5638   -1.7674   -0.0526 H   0  0  0  0  0  0  0  0  0  0  0  0
   -1.5399    3.1782    0.0743 H   0  0  0  0  0  0  0  0  0  0  0  0
   -4.8028    2.1011   -0.5488 H   0  0  0  0  0  0  0  0  0  0  0  0
   -3.0654    2.0519   -0.0766 H   0  0  0  0  0  0  0  0  0  0  0  0
   -1.1818   -3.1336    0.8893 H   0  0  0  0  0  0  0  0  0  0  0  0
   -1.1921   -3.1110   -0.8998 H   0  0  0  0  0  0  0  0  0  0  0  0
   -2.5755   -2.4764    0.0106 H   0  0  0  0  0  0  0  0  0  0  0  0
    1.3163   -2.9750   -0.0603 H   0  0  0  0  0  0  0  0  0  0  0  0
  1  2  1  0  0  0  0
  2  3  4  0  0  0  0
  3  4  4  0  0  0  0
  4  5  1  0  0  0  0
  2  6  1  0  0  0  0
  5  6  4  0  0  0  0
  6  7  1  0  0  0  0
  7  8  2  0  0  0  0
  7  9  1  0  0  0  0
  9 10  4  0  0  0  0
  9 11  1  0  0  0  0
 11 12  2  0  0  0  0
  5 13  1  0  0  0  0
 11 13  1  0  0  0  0
 13 14  1  0  0  0  0
  1 15  1  0  0  0  0
  1 16  1  0  0  0  0
  1 17  1  0  0  0  0
  3 18  1  0  0  0  0
 10 19  1  0  0  0  0
 10 21  1  0  0  0  0
 14 22  1  0  0  0  0
 14 23  1  0  0  0  0
 14 24  1  0  0  0  0
  4 25  1  0  0  0  0
M  CHG  1   1   1
M  END
