 xtb: 6.6.1 (8d0f1dd)
          06052420003D

 25 25  0     0  0            999 V2000
    3.4501    2.0178    0.0166 C   0  0  0  0  0  0  0  0  0  0  0  0
    2.7651    0.7513    0.0146 N   0  0  0  0  0  0  0  0  0  0  0  0
    3.3199   -0.4540    0.0217 C   0  0  0  0  0  0  0  0  0  0  0  0
    2.3709   -1.4051    0.0145 N   0  0  0  0  0  0  0  0  0  0  0  0
    1.1453   -0.7888    0.0025 C   0  0  0  0  0  0  0  0  0  0  0  0
    1.4082    0.5883    0.0022 C   0  0  0  0  0  0  0  0  0  0  0  0
    0.3105    1.5314   -0.0025 C   0  0  0  0  0  0  0  0  0  0  0  0
    0.4253    2.7415   -0.0003 O   0  0  0  0  0  0  0  0  0  0  0  0
   -0.9110    0.8825   -0.0082 N   0  0  0  0  0  0  0  0  0  0  0  0
   -2.1092    1.6960   -0.0078 C   0  0  0  0  0  0  0  0  0  0  0  0
   -1.1214   -0.5249   -0.0131 C   0  0  0  0  0  0  0  0  0  0  0  0
   -2.2556   -0.9472   -0.0219 O   0  0  0  0  0  0  0  0  0  0  0  0
   -0.0390   -1.3427   -0.0061 N   0  0  0  0  0  0  0  0  0  0  0  0
   -4.0290   -4.1495   -0.0148 C   0  0  0  0  0  0  0  0  0  0  0  0
    4.0743    2.1097    0.9056 H   0  0  0  0  0  0  0  0  0  0  0  0
    4.0816    2.1084   -0.8675 H   0  0  0  0  0  0  0  0  0  0  0  0
    2.7064    2.8149    0.0127 H   0  0  0  0  0  0  0  0  0  0  0  0
    4.3767   -0.6422    0.0322 H   0  0  0  0  0  0  0  0  0  0  0  0
   -1.8120    2.7430    0.0117 H   0  0  0  0  0  0  0  0  0  0  0  0
   -2.7011    1.4863   -0.9001 H   0  0  0  0  0  0  0  0  0  0  0  0
   -2.7183    1.4570    0.8652 H   0  0  0  0  0  0  0  0  0  0  0  0
   -4.2730   -4.6310    0.9156 H   0  0  0  0  0  0  0  0  0  0  0  0
   -4.2711   -4.6323   -0.9415 H   0  0  0  0  0  0  0  0  0  0  0  0
   -3.5489   -3.1870   -0.0185 H   0  0  0  0  0  0  0  0  0  0  0  0
    2.5158   -2.4052    0.0184 H   0  0  0  0  0  0  0  0  0  0  0  0
  1  2  1  0  0  0  0
  2  3  4  0  0  0  0
  3  4  4  0  0  0  0
  4  5  1  0  0  0  0
  2  6  1  0  0  0  0
  5  6  4  0  0  0  0
  6  7  1  0  0  0  0
  7  8  2  0  0  0  0
  7  9  1  0  0  0  0
  9 10  1  0  0  0  0
  9 11  1  0  0  0  0
 11 12  2  0  0  0  0
  5 13  4  0  0  0  0
 11 13  1  0  0  0  0
  1 15  1  0  0  0  0
  1 16  1  0  0  0  0
  1 17  1  0  0  0  0
  3 18  1  0  0  0  0
 10 19  1  0  0  0  0
 10 20  1  0  0  0  0
 10 21  1  0  0  0  0
 14 22  1  0  0  0  0
 14 23  1  0  0  0  0
 14 24  1  0  0  0  0
  4 25  1  0  0  0  0
M  CHG  1   1   1
M  END
