 xtb: 6.6.1 (8d0f1dd)
          06052420003D

 25 26  0     0  0            999 V2000
    3.2412    1.2427    0.0249 C   0  0  0  0  0  0  0  0  0  0  0  0
    2.1852    0.3129   -0.0072 N   0  0  0  0  0  0  0  0  0  0  0  0
    3.4793   -0.2316   -0.0281 C   0  0  0  0  0  0  0  0  0  0  0  0
    1.1875   -2.1871   -0.1009 N   0  0  0  0  0  0  0  0  0  0  0  0
    0.3578   -1.2250   -0.0586 C   0  0  0  0  0  0  0  0  0  0  0  0
    0.9078    0.1234   -0.0090 C   0  0  0  0  0  0  0  0  0  0  0  0
    0.0340    1.3146    0.0504 C   0  0  0  0  0  0  0  0  0  0  0  0
    0.4933    2.4343    0.0848 O   0  0  0  0  0  0  0  0  0  0  0  0
   -1.3098    1.0378    0.0676 N   0  0  0  0  0  0  0  0  0  0  0  0
   -2.2450    2.1475    0.1353 C   0  0  0  0  0  0  0  0  0  0  0  0
   -1.8816   -0.2301    0.0121 C   0  0  0  0  0  0  0  0  0  0  0  0
   -3.0751   -0.3680    0.0210 O   0  0  0  0  0  0  0  0  0  0  0  0
   -1.0185   -1.3190   -0.0520 N   0  0  0  0  0  0  0  0  0  0  0  0
   -1.6247   -2.6389   -0.1052 C   0  0  0  0  0  0  0  0  0  0  0  0
    3.3976    1.7809    0.9545 H   0  0  0  0  0  0  0  0  0  0  0  0
    3.8159   -0.7084   -0.9364 H   0  0  0  0  0  0  0  0  0  0  0  0
    3.3730    1.8617   -0.8560 H   0  0  0  0  0  0  0  0  0  0  0  0
    3.7947   -0.7519    0.8702 H   0  0  0  0  0  0  0  0  0  0  0  0
   -1.6781    3.0663    0.2680 H   0  0  0  0  0  0  0  0  0  0  0  0
   -2.8311    2.1977   -0.7836 H   0  0  0  0  0  0  0  0  0  0  0  0
   -2.9332    1.9965    0.9674 H   0  0  0  0  0  0  0  0  0  0  0  0
   -1.3232   -3.2299    0.7614 H   0  0  0  0  0  0  0  0  0  0  0  0
   -1.3337   -3.1527   -1.0229 H   0  0  0  0  0  0  0  0  0  0  0  0
   -2.7063   -2.5159   -0.0930 H   0  0  0  0  0  0  0  0  0  0  0  0
    0.8532   -3.1397   -0.1334 H   0  0  0  0  0  0  0  0  0  0  0  0
  1  2  1  0  0  0  0
  1  3  1  0  0  0  0
  2  3  1  0  0  0  0
  4  5  2  0  0  0  0
  2  6  2  0  0  0  0
  5  6  1  0  0  0  0
  6  7  1  0  0  0  0
  7  8  2  0  0  0  0
  7  9  1  0  0  0  0
  9 10  1  0  0  0  0
  9 11  1  0  0  0  0
 11 12  2  0  0  0  0
  5 13  1  0  0  0  0
 11 13  1  0  0  0  0
 13 14  1  0  0  0  0
  1 15  1  0  0  0  0
  3 16  1  0  0  0  0
  1 17  1  0  0  0  0
  3 18  1  0  0  0  0
 10 19  1  0  0  0  0
 10 20  1  0  0  0  0
 10 21  1  0  0  0  0
 14 22  1  0  0  0  0
 14 23  1  0  0  0  0
 14 24  1  0  0  0  0
  4 25  1  0  0  0  0
M  CHG  1   1   1
M  END
