 xtb: 6.6.1 (8d0f1dd)
          06052419583D

 25 26  0     0  0            999 V2000
    3.2719    1.1469   -0.0053 C   0  0  0  0  0  0  0  0  0  0  0  0
    2.4163    0.1523    0.0095 N   0  0  0  0  0  0  0  0  0  0  0  0
    2.5719   -1.0905    0.5159 C   0  0  0  0  0  0  0  0  0  0  0  0
    1.4129   -1.8025    0.3895 N   0  0  0  0  0  0  0  0  0  0  0  0
    0.4775   -1.0728   -0.2303 C   0  0  0  0  0  0  0  0  0  0  0  0
    1.0721    0.2463   -0.5462 C   0  0  0  0  0  0  0  0  0  0  0  0
    0.1748    1.3454    0.1076 C   0  0  0  0  0  0  0  0  0  0  0  0
    0.6365    2.3237    0.6216 O   0  0  0  0  0  0  0  0  0  0  0  0
   -1.1527    1.0601   -0.0262 N   0  0  0  0  0  0  0  0  0  0  0  0
   -2.1139    2.1269    0.2516 C   0  0  0  0  0  0  0  0  0  0  0  0
   -1.7235   -0.1742   -0.3482 C   0  0  0  0  0  0  0  0  0  0  0  0
   -2.8942   -0.3111   -0.5610 O   0  0  0  0  0  0  0  0  0  0  0  0
   -0.8500   -1.2775   -0.3113 N   0  0  0  0  0  0  0  0  0  0  0  0
   -1.4241   -2.6096   -0.2326 C   0  0  0  0  0  0  0  0  0  0  0  0
    4.2364    1.0164    0.4492 H   0  0  0  0  0  0  0  0  0  0  0  0
    1.0926    0.5111   -1.6121 H   0  0  0  0  0  0  0  0  0  0  0  0
    2.9896    2.0904   -0.4273 H   0  0  0  0  0  0  0  0  0  0  0  0
    3.4690   -1.4678    0.9568 H   0  0  0  0  0  0  0  0  0  0  0  0
   -1.5784    3.0709    0.2990 H   0  0  0  0  0  0  0  0  0  0  0  0
   -2.8553    2.1461   -0.5457 H   0  0  0  0  0  0  0  0  0  0  0  0
   -2.6201    1.9431    1.1984 H   0  0  0  0  0  0  0  0  0  0  0  0
   -1.3830   -2.9914    0.7890 H   0  0  0  0  0  0  0  0  0  0  0  0
   -0.8974   -3.2832   -0.9064 H   0  0  0  0  0  0  0  0  0  0  0  0
   -2.4673   -2.5348   -0.5367 H   0  0  0  0  0  0  0  0  0  0  0  0
    1.2991   -2.7458    0.7325 H   0  0  0  0  0  0  0  0  0  0  0  0
  1  2  4  0  0  0  0
  2  3  4  0  0  0  0
  3  4  1  0  0  0  0
  4  5  4  0  0  0  0
  2  6  1  0  0  0  0
  5  6  1  0  0  0  0
  6  7  1  0  0  0  0
  7  8  2  0  0  0  0
  7  9  1  0  0  0  0
  9 10  1  0  0  0  0
  9 11  1  0  0  0  0
 11 12  2  0  0  0  0
  5 13  4  0  0  0  0
 11 13  1  0  0  0  0
 13 14  1  0  0  0  0
  1 15  1  0  0  0  0
  6 16  1  0  0  0  0
  1 17  1  0  0  0  0
  3 18  1  0  0  0  0
 10 19  1  0  0  0  0
 10 20  1  0  0  0  0
 10 21  1  0  0  0  0
 14 22  1  0  0  0  0
 14 23  1  0  0  0  0
 14 24  1  0  0  0  0
  4 25  1  0  0  0  0
M  CHG  1   1   1
M  END
