 xtb: 6.6.1 (8d0f1dd)
          06052420003D

 25 26  0     0  0            999 V2000
    3.2738    1.1389    0.0297 C   0  0  0  0  0  0  0  0  0  0  0  0
    2.4169    0.1452    0.0110 N   0  0  0  0  0  0  0  0  0  0  0  0
    2.5721   -1.0980   -0.4948 C   0  0  0  0  0  0  0  0  0  0  0  0
    1.4103   -1.8066   -0.3768 N   0  0  0  0  0  0  0  0  0  0  0  0
    0.4731   -1.0752    0.2390 C   0  0  0  0  0  0  0  0  0  0  0  0
    1.0695    0.2428    0.5577 C   0  0  0  0  0  0  0  0  0  0  0  0
    0.1810    1.3436   -0.1060 C   0  0  0  0  0  0  0  0  0  0  0  0
    0.6506    2.3181   -0.6202 O   0  0  0  0  0  0  0  0  0  0  0  0
   -1.1483    1.0634    0.0181 N   0  0  0  0  0  0  0  0  0  0  0  0
   -2.1029    2.1327   -0.2712 C   0  0  0  0  0  0  0  0  0  0  0  0
   -1.7249   -0.1679    0.3411 C   0  0  0  0  0  0  0  0  0  0  0  0
   -2.8970   -0.2993    0.5502 O   0  0  0  0  0  0  0  0  0  0  0  0
   -0.8559   -1.2748    0.3093 N   0  0  0  0  0  0  0  0  0  0  0  0
   -1.4362   -2.6039    0.2264 C   0  0  0  0  0  0  0  0  0  0  0  0
    1.0834    0.5053    1.6240 H   0  0  0  0  0  0  0  0  0  0  0  0
    4.2411    1.0082   -0.4182 H   0  0  0  0  0  0  0  0  0  0  0  0
    2.9893    2.0821    0.4513 H   0  0  0  0  0  0  0  0  0  0  0  0
    3.4699   -1.4751   -0.9347 H   0  0  0  0  0  0  0  0  0  0  0  0
   -1.5653    3.0761   -0.3048 H   0  0  0  0  0  0  0  0  0  0  0  0
   -2.5926    1.9546   -1.2277 H   0  0  0  0  0  0  0  0  0  0  0  0
   -2.8580    2.1490    0.5131 H   0  0  0  0  0  0  0  0  0  0  0  0
   -0.9162   -3.2810    0.9019 H   0  0  0  0  0  0  0  0  0  0  0  0
   -1.3918   -2.9842   -0.7957 H   0  0  0  0  0  0  0  0  0  0  0  0
   -2.4806   -2.5244    0.5253 H   0  0  0  0  0  0  0  0  0  0  0  0
    1.2993   -2.7512   -0.7168 H   0  0  0  0  0  0  0  0  0  0  0  0
  1  2  4  0  0  0  0
  2  3  4  0  0  0  0
  3  4  1  0  0  0  0
  4  5  4  0  0  0  0
  2  6  1  0  0  0  0
  5  6  1  0  0  0  0
  6  7  1  0  0  0  0
  7  8  2  0  0  0  0
  7  9  1  0  0  0  0
  9 10  1  0  0  0  0
  9 11  1  0  0  0  0
 11 12  2  0  0  0  0
  5 13  4  0  0  0  0
 11 13  1  0  0  0  0
 13 14  1  0  0  0  0
  6 15  1  0  0  0  0
  1 16  1  0  0  0  0
  1 17  1  0  0  0  0
  3 18  1  0  0  0  0
 10 19  1  0  0  0  0
 10 20  1  0  0  0  0
 10 21  1  0  0  0  0
 14 22  1  0  0  0  0
 14 23  1  0  0  0  0
 14 24  1  0  0  0  0
  4 25  1  0  0  0  0
M  CHG  1   1   1
M  END
