 xtb: 6.6.1 (8d0f1dd)
          06052419583D

 25 25  0     0  0            999 V2000
    3.0063    1.0852    0.2865 C   0  0  0  0  0  0  0  0  0  0  0  0
    2.1569   -0.0439    0.0267 N   0  0  0  0  0  0  0  0  0  0  0  0
    2.5756   -1.2873   -0.1936 C   0  0  0  0  0  0  0  0  0  0  0  0
    1.5197   -2.0928   -0.3792 N   0  0  0  0  0  0  0  0  0  0  0  0
    0.3555   -1.3447   -0.2606 C   0  0  0  0  0  0  0  0  0  0  0  0
    0.7763   -0.0306    0.0187 C   0  0  0  0  0  0  0  0  0  0  0  0
   -0.0083    1.2064    0.0058 C   0  0  0  0  0  0  0  0  0  0  0  0
    0.4684    2.2642   -0.3664 O   0  0  0  0  0  0  0  0  0  0  0  0
   -1.3468    1.0904    0.3558 N   0  0  0  0  0  0  0  0  0  0  0  0
   -2.2776    2.0864   -0.1331 C   0  0  0  0  0  0  0  0  0  0  0  0
   -1.8488    0.1488    1.2227 C   0  0  0  0  0  0  0  0  0  0  0  0
   -3.0208    0.0133    1.4390 O   0  0  0  0  0  0  0  0  0  0  0  0
   -0.9028   -1.7663   -0.3658 N   0  0  0  0  0  0  0  0  0  0  0  0
   -1.3453   -2.8715   -0.8345 C   0  0  0  0  0  0  0  0  0  0  0  0
    2.9990    1.3270    1.3517 H   0  0  0  0  0  0  0  0  0  0  0  0
    4.0241    0.8583   -0.0221 H   0  0  0  0  0  0  0  0  0  0  0  0
    2.6346    1.9542   -0.2592 H   0  0  0  0  0  0  0  0  0  0  0  0
    3.6021   -1.5978   -0.2165 H   0  0  0  0  0  0  0  0  0  0  0  0
   -1.7256    2.8568   -0.6683 H   0  0  0  0  0  0  0  0  0  0  0  0
   -3.0041    1.6121   -0.7970 H   0  0  0  0  0  0  0  0  0  0  0  0
   -2.8245    2.5299    0.7003 H   0  0  0  0  0  0  0  0  0  0  0  0
   -1.0744   -0.4130    1.7596 H   0  0  0  0  0  0  0  0  0  0  0  0
   -0.7384   -3.6434   -1.3025 H   0  0  0  0  0  0  0  0  0  0  0  0
   -2.4083   -3.0392   -0.7740 H   0  0  0  0  0  0  0  0  0  0  0  0
    1.5674   -3.0841   -0.5629 H   0  0  0  0  0  0  0  0  0  0  0  0
  1  2  1  0  0  0  0
  2  3  4  0  0  0  0
  3  4  4  0  0  0  0
  4  5  1  0  0  0  0
  2  6  1  0  0  0  0
  5  6  4  0  0  0  0
  6  7  1  0  0  0  0
  7  8  2  0  0  0  0
  7  9  1  0  0  0  0
  9 10  1  0  0  0  0
  9 11  1  0  0  0  0
 11 12  2  0  0  0  0
  5 13  4  0  0  0  0
 13 14  2  0  0  0  0
  1 15  1  0  0  0  0
  1 16  1  0  0  0  0
  1 17  1  0  0  0  0
  3 18  1  0  0  0  0
 10 19  1  0  0  0  0
 10 20  1  0  0  0  0
 10 21  1  0  0  0  0
 11 22  1  0  0  0  0
 14 23  1  0  0  0  0
 14 24  1  0  0  0  0
  4 25  1  0  0  0  0
M  CHG  1   1   1
M  END
