          50
 
N             -2.22539591        2.90484864        2.74239027
C             -2.04803115        2.24280762        1.69799952
C             -3.06785250        2.09782569        0.60147546
C             -3.50746896        0.64473160        0.50882053
C             -4.32254032        0.23676533       -0.54884811
C             -4.76955746       -1.06940615       -0.65971331
O             -5.57169747       -1.53575529       -1.63790114
C             -6.12246613       -0.63000011       -2.56668600
C             -4.37632424       -2.02810664        0.31402840
O             -4.84570253       -3.27637225        0.12152276
C             -4.57597727       -4.26854637        1.08456710
C             -3.56773096       -1.61644980        1.36231570
C             -3.14483208       -0.29719100        1.46044928
C             -2.36109664        2.52402075       -0.71436979
C             -1.35337236        1.50454587       -1.27294071
C             -0.07742736        1.47790305       -0.51374693
N              0.62160180        0.39142722       -0.20029031
C              1.77872587        0.43143957        0.44942856
C              0.09564187       -0.91314177       -0.56534410
C             -4.33439003        2.97752774        0.82343859
C             -5.10265426        2.55524666        2.07323021
C             -4.02525530        4.47090246        0.89001954
H             -4.62099689        0.95723019       -1.29198665
H             -6.68662313        0.16267062       -2.06536849
H             -6.79891554       -1.21857737       -3.18368274
H             -5.34954595       -0.18590874       -3.20274973
H             -4.97150355       -3.99145381        2.06603111
H             -5.08319582       -5.16385409        0.73058297
H             -3.50297552       -4.46913597        1.16604264
H             -3.27003755       -2.31651663        2.12630113
H             -2.54406346       -0.01187380        2.31024436
H             -3.12452919        2.69625113       -1.47295793
H             -1.84787475        3.47097056       -0.54426906
H             -1.82239745        0.52276373       -1.31556303
H             -1.13668903        1.80936382       -2.30591383
H             -1.10332632        1.72652780        1.45532535
H              0.38435531        2.42589716       -0.28293074
H              2.30878957       -0.47082509        0.67271986
H              2.19387281        1.37794392        0.73548240
H             -0.00153023       -0.98707971       -1.64815171
H             -0.88271750       -1.07037256       -0.10741441
H              0.77363485       -1.68877535       -0.22065053
H             -4.98488387        2.80712855       -0.04229316
H             -4.51702312        2.77115115        2.96092021
H             -5.33491112        1.49309666        2.05325128
H             -6.03620451        3.10851069        2.13073870
H             -3.35271553        4.67996411        1.71634108
H             -3.58377059        4.83591073       -0.03320594
H             -4.94904545        5.01883862        1.05634770
H             -1.46278020        2.95845254        3.41006147
