          24
 
C              3.23611774        1.12204372        0.02303187
N              2.27974253        0.04824387       -0.00074304
C              2.54470945       -1.25500293       -0.00713054
N              1.38798580       -1.95916332       -0.00805357
C              0.35431525       -1.07131595       -0.00228590
C              0.90916078        0.20245148        0.00298026
C              0.11005290        1.38980436       -0.00904084
O              0.49007615        2.53999951       -0.03111743
N             -1.29293320        1.07515765        0.00147949
C             -2.15101734        2.10176851       -0.00303314
C             -1.86122724       -0.23389979        0.00804950
O             -3.05082836       -0.39280735        0.01787561
N             -0.97396595       -1.30549112       -0.00095187
C             -1.50749951       -2.65599048       -0.01832363
H              3.69358572        1.20036328        1.01077488
H              4.01877207        0.94720498       -0.71381414
H              2.72082259        2.05597900       -0.19763743
H              3.52225473       -1.69376058       -0.01345440
H             -1.74566493        3.09680886       -0.01052364
H             -3.20422379        1.89509116        0.00702459
H             -1.21341940       -3.19349227        0.88331661
H             -1.16272064       -3.18759852       -0.90522879
H             -2.59351009       -2.58218310       -0.04786561
H              1.31895245       -2.96647142       -0.01597479
