          20
 
C              1.32006161       -1.32431060        0.29686055
N              0.53598521       -2.44176086        0.20475412
C             -0.76444122       -2.11114373        0.06137580
C              0.46910197       -0.24990759        0.20119352
C              0.35269924        1.19944741        0.18163536
O              1.19688970        2.06824564        0.25526184
N             -1.02092630        1.42555870        0.03753657
C             -1.60651110        2.74146437       -0.02348611
C             -1.76930363        0.27345815       -0.03891134
O             -2.95371375        0.13852829       -0.16094312
N             -0.81090710       -0.76621510        0.06172622
C             -1.91172193       -3.02103185       -0.05245063
H              2.38657210       -1.35399873        0.38794587
H             -0.79784875        3.46980592        0.01250873
H             -2.17527673        2.85559404       -0.94747164
H             -2.28147627        2.89353108        0.82053717
H             -1.92944467       -3.72882827        0.77716210
H             -1.86295000       -3.60074895       -0.97634443
H             -2.83588763       -2.44607769       -0.05271896
H              0.88191756       -3.39117223        0.23971107
