 xtb: 6.6.1 (8d0f1dd)
          04062411163D

 72 74  0     0  0            999 V2000
   -1.5630    2.6695    2.4004 N   0  0  0  0  0  0  0  0  0  0  0  0
   -1.4981    1.8190    1.4860 C   0  0  0  0  0  0  0  0  0  0  0  0
   -2.5282    1.7009    0.3835 C   0  0  0  0  0  0  0  0  0  0  0  0
   -3.2495    0.3751    0.4985 C   0  0  0  0  0  0  0  0  0  0  0  0
   -4.3694    0.1157   -0.4686 C   0  0  0  0  0  0  0  0  0  0  0  0
   -4.7831   -1.3153   -0.5541 C   0  0  0  0  0  0  0  0  0  0  0  0
   -5.5574   -1.7660   -1.5449 O   0  0  0  0  0  0  0  0  0  0  0  0
   -5.9906   -0.8963   -2.5657 C   0  0  0  0  0  0  0  0  0  0  0  0
   -4.4391   -2.2300    0.4506 C   0  0  0  0  0  0  0  0  0  0  0  0
   -4.9584   -3.4720    0.3151 O   0  0  0  0  0  0  0  0  0  0  0  0
   -4.6549   -4.4498    1.2849 C   0  0  0  0  0  0  0  0  0  0  0  0
   -3.5816   -1.8238    1.4727 C   0  0  0  0  0  0  0  0  0  0  0  0
   -2.9689   -0.5573    1.4485 C   0  0  0  0  0  0  0  0  0  0  0  0
   -1.7461    1.7806   -0.9414 C   0  0  0  0  0  0  0  0  0  0  0  0
   -1.6985    0.7208   -2.0107 C   0  0  0  0  0  0  0  0  0  0  0  0
   -0.4442    1.0543   -1.2661 C   0  0  0  0  0  0  0  0  0  0  0  0
    0.1873    0.1268   -0.3808 N   0  0  0  0  0  0  0  0  0  0  0  0
    1.5875    0.3837   -0.1355 C   0  0  0  0  0  0  0  0  0  0  0  0
    2.5266    0.0048   -1.3046 C   0  0  0  0  0  0  0  0  0  0  0  0
    3.9574    0.1539   -0.8871 C   0  0  0  0  0  0  0  0  0  0  0  0
    4.6393    1.3481   -1.0715 C   0  0  0  0  0  0  0  0  0  0  0  0
    5.9570    1.4841   -0.6652 C   0  0  0  0  0  0  0  0  0  0  0  0
    6.6228    0.4275   -0.0578 C   0  0  0  0  0  0  0  0  0  0  0  0
    7.8982    0.4429    0.3684 O   0  0  0  0  0  0  0  0  0  0  0  0
    8.6747    1.6035    0.1801 C   0  0  0  0  0  0  0  0  0  0  0  0
    5.9289   -0.7989    0.1461 C   0  0  0  0  0  0  0  0  0  0  0  0
    6.6452   -1.7717    0.7418 O   0  0  0  0  0  0  0  0  0  0  0  0
    6.0501   -3.0280    0.9638 C   0  0  0  0  0  0  0  0  0  0  0  0
    4.6115   -0.9097   -0.2697 C   0  0  0  0  0  0  0  0  0  0  0  0
   -0.1655   -1.2707   -0.4987 C   0  0  0  0  0  0  0  0  0  0  0  0
   -3.5885    2.8515    0.4348 C   0  0  0  0  0  0  0  0  0  0  0  0
   -4.4394    2.7554    1.7021 C   0  0  0  0  0  0  0  0  0  0  0  0
   -3.0007    4.2598    0.3581 C   0  0  0  0  0  0  0  0  0  0  0  0
   -5.2535    0.6785   -0.1169 H   0  0  0  0  0  0  0  0  0  0  0  0
   -6.5697   -0.0602   -2.1647 H   0  0  0  0  0  0  0  0  0  0  0  0
   -6.6248   -1.4988   -3.2130 H   0  0  0  0  0  0  0  0  0  0  0  0
   -5.1493   -0.5095   -3.1498 H   0  0  0  0  0  0  0  0  0  0  0  0
   -5.0151   -4.1579    2.2757 H   0  0  0  0  0  0  0  0  0  0  0  0
   -5.1775   -5.3483    0.9630 H   0  0  0  0  0  0  0  0  0  0  0  0
   -3.5803   -4.6520    1.3294 H   0  0  0  0  0  0  0  0  0  0  0  0
   -3.3303   -2.5006    2.2712 H   0  0  0  0  0  0  0  0  0  0  0  0
   -2.2342   -0.3541    2.2122 H   0  0  0  0  0  0  0  0  0  0  0  0
   -4.1391    0.5196   -1.4510 H   0  0  0  0  0  0  0  0  0  0  0  0
   -1.7478    2.7907   -1.3285 H   0  0  0  0  0  0  0  0  0  0  0  0
   -2.1331   -0.2454   -1.8184 H   0  0  0  0  0  0  0  0  0  0  0  0
   -1.7813    1.0354   -3.0414 H   0  0  0  0  0  0  0  0  0  0  0  0
   -0.6780    1.1007    1.3716 H   0  0  0  0  0  0  0  0  0  0  0  0
    0.2745    1.6767   -1.7908 H   0  0  0  0  0  0  0  0  0  0  0  0
    1.8828   -0.1895    0.7481 H   0  0  0  0  0  0  0  0  0  0  0  0
    1.7101    1.4450    0.0946 H   0  0  0  0  0  0  0  0  0  0  0  0
    2.3164    0.6470   -2.1609 H   0  0  0  0  0  0  0  0  0  0  0  0
    2.3322   -1.0293   -1.5919 H   0  0  0  0  0  0  0  0  0  0  0  0
    4.1461    2.1822   -1.5467 H   0  0  0  0  0  0  0  0  0  0  0  0
    6.4627    2.4214   -0.8299 H   0  0  0  0  0  0  0  0  0  0  0  0
    8.2580    2.4567    0.7237 H   0  0  0  0  0  0  0  0  0  0  0  0
    8.7669    1.8551   -0.8806 H   0  0  0  0  0  0  0  0  0  0  0  0
    9.6577    1.3650    0.5817 H   0  0  0  0  0  0  0  0  0  0  0  0
    6.8194   -3.6372    1.4341 H   0  0  0  0  0  0  0  0  0  0  0  0
    5.1892   -2.9507    1.6356 H   0  0  0  0  0  0  0  0  0  0  0  0
    5.7408   -3.4970    0.0246 H   0  0  0  0  0  0  0  0  0  0  0  0
    4.0788   -1.8373   -0.1294 H   0  0  0  0  0  0  0  0  0  0  0  0
   -0.0154   -1.6631   -1.5114 H   0  0  0  0  0  0  0  0  0  0  0  0
   -1.2088   -1.4142   -0.2188 H   0  0  0  0  0  0  0  0  0  0  0  0
    0.4482   -1.8444    0.1929 H   0  0  0  0  0  0  0  0  0  0  0  0
   -4.2344    2.7195   -0.4404 H   0  0  0  0  0  0  0  0  0  0  0  0
   -3.8413    3.0409    2.5615 H   0  0  0  0  0  0  0  0  0  0  0  0
   -4.8183    1.7508    1.8717 H   0  0  0  0  0  0  0  0  0  0  0  0
   -5.2848    3.4349    1.6288 H   0  0  0  0  0  0  0  0  0  0  0  0
   -2.2729    4.4109    1.1484 H   0  0  0  0  0  0  0  0  0  0  0  0
   -2.5349    4.4705   -0.6009 H   0  0  0  0  0  0  0  0  0  0  0  0
   -3.8043    4.9792    0.4937 H   0  0  0  0  0  0  0  0  0  0  0  0
   -0.8097    2.6850    3.0810 H   0  0  0  0  0  0  0  0  0  0  0  0
  1  2  2  0  0  0  0
  2  3  1  0  0  0  0
  3  4  1  0  0  0  0
  4  5  1  0  0  0  0
  5  6  1  0  0  0  0
  6  7  1  0  0  0  0
  7  8  1  0  0  0  0
  6  9  4  0  0  0  0
  9 10  1  0  0  0  0
 10 11  1  0  0  0  0
  9 12  4  0  0  0  0
  4 13  2  0  0  0  0
 12 13  4  0  0  0  0
  3 14  1  0  0  0  0
 14 15  1  0  0  0  0
 14 16  1  0  0  0  0
 15 16  1  0  0  0  0
 16 17  1  0  0  0  0
 17 18  1  0  0  0  0
 18 19  1  0  0  0  0
 19 20  1  0  0  0  0
 20 21  4  0  0  0  0
 21 22  4  0  0  0  0
 22 23  4  0  0  0  0
 23 24  1  0  0  0  0
 24 25  1  0  0  0  0
 23 26  4  0  0  0  0
 26 27  1  0  0  0  0
 27 28  1  0  0  0  0
 20 29  4  0  0  0  0
 26 29  4  0  0  0  0
 17 30  1  0  0  0  0
  3 31  1  0  0  0  0
 31 32  1  0  0  0  0
 31 33  1  0  0  0  0
  5 34  1  0  0  0  0
  8 35  1  0  0  0  0
  8 36  1  0  0  0  0
  8 37  1  0  0  0  0
 11 38  1  0  0  0  0
 11 39  1  0  0  0  0
 11 40  1  0  0  0  0
 12 41  1  0  0  0  0
 13 42  1  0  0  0  0
  5 43  1  0  0  0  0
 14 44  1  0  0  0  0
 15 45  1  0  0  0  0
 15 46  1  0  0  0  0
  2 47  1  0  0  0  0
 16 48  1  0  0  0  0
 18 49  1  0  0  0  0
 18 50  1  0  0  0  0
 19 51  1  0  0  0  0
 19 52  1  0  0  0  0
 21 53  1  0  0  0  0
 22 54  1  0  0  0  0
 25 55  1  0  0  0  0
 25 56  1  0  0  0  0
 25 57  1  0  0  0  0
 28 58  1  0  0  0  0
 28 59  1  0  0  0  0
 28 60  1  0  0  0  0
 29 61  1  0  0  0  0
 30 62  1  0  0  0  0
 30 63  1  0  0  0  0
 30 64  1  0  0  0  0
 31 65  1  0  0  0  0
 32 66  1  0  0  0  0
 32 67  1  0  0  0  0
 32 68  1  0  0  0  0
 33 69  1  0  0  0  0
 33 70  1  0  0  0  0
 33 71  1  0  0  0  0
  1 72  1  0  0  0  0
M  CHG  1   1   1
M  END
