 xtb: 6.6.1 (8d0f1dd)
          06052419593D

 25 26  0     0  0            999 V2000
    3.2109    1.2060   -0.0603 C   0  0  0  0  0  0  0  0  0  0  0  0
    2.3093    0.0851   -0.0408 N   0  0  0  0  0  0  0  0  0  0  0  0
    2.6442   -1.2034   -0.0333 C   0  0  0  0  0  0  0  0  0  0  0  0
    1.5245   -1.9653   -0.0000 N   0  0  0  0  0  0  0  0  0  0  0  0
    0.4429   -1.1256    0.0107 C   0  0  0  0  0  0  0  0  0  0  0  0
    0.9359    0.1687   -0.0082 C   0  0  0  0  0  0  0  0  0  0  0  0
    0.0525    1.3170    0.0305 C   0  0  0  0  0  0  0  0  0  0  0  0
    0.3852    2.4763   -0.0170 O   0  0  0  0  0  0  0  0  0  0  0  0
   -1.2874    0.8912    0.1502 N   0  0  0  0  0  0  0  0  0  0  0  0
   -2.3197    1.9595    0.2029 C   0  0  0  0  0  0  0  0  0  0  0  0
   -1.7519   -0.3589    0.1531 C   0  0  0  0  0  0  0  0  0  0  0  0
   -3.1833    1.8686   -0.8579 O   0  0  0  0  0  0  0  0  0  0  0  0
   -0.8869   -1.3854    0.0633 N   0  0  0  0  0  0  0  0  0  0  0  0
   -1.3827   -2.7469    0.0311 C   0  0  0  0  0  0  0  0  0  0  0  0
    3.6959    1.3198    0.9114 H   0  0  0  0  0  0  0  0  0  0  0  0
    3.9782    1.0604   -0.8202 H   0  0  0  0  0  0  0  0  0  0  0  0
    2.6414    2.1094   -0.2760 H   0  0  0  0  0  0  0  0  0  0  0  0
    3.6447   -1.5896   -0.0517 H   0  0  0  0  0  0  0  0  0  0  0  0
   -1.7916    2.9111    0.1060 H   0  0  0  0  0  0  0  0  0  0  0  0
   -3.8346    1.1695   -0.7166 H   0  0  0  0  0  0  0  0  0  0  0  0
   -2.8061    1.8895    1.1888 H   0  0  0  0  0  0  0  0  0  0  0  0
   -1.0549   -3.3007    0.9124 H   0  0  0  0  0  0  0  0  0  0  0  0
   -1.0385   -3.2565   -0.8699 H   0  0  0  0  0  0  0  0  0  0  0  0
   -2.4691   -2.7066    0.0238 H   0  0  0  0  0  0  0  0  0  0  0  0
    1.5015   -2.9750   -0.0011 H   0  0  0  0  0  0  0  0  0  0  0  0
  1  2  1  0  0  0  0
  2  3  4  0  0  0  0
  3  4  4  0  0  0  0
  4  5  1  0  0  0  0
  2  6  1  0  0  0  0
  5  6  4  0  0  0  0
  6  7  1  0  0  0  0
  7  8  2  0  0  0  0
  7  9  1  0  0  0  0
  9 10  1  0  0  0  0
  9 11  4  0  0  0  0
 10 12  1  0  0  0  0
  5 13  1  0  0  0  0
 11 13  4  0  0  0  0
 13 14  1  0  0  0  0
  1 15  1  0  0  0  0
  1 16  1  0  0  0  0
  1 17  1  0  0  0  0
  3 18  1  0  0  0  0
 10 19  1  0  0  0  0
 12 20  1  0  0  0  0
 10 21  1  0  0  0  0
 14 22  1  0  0  0  0
 14 23  1  0  0  0  0
 14 24  1  0  0  0  0
  4 25  1  0  0  0  0
M  CHG  1   1   1
M  END
