 xtb: 6.6.1 (8d0f1dd)
          04062411123D

 72 72  0     0  0            999 V2000
   -2.6708    2.9973    2.6794 N   0  0  0  0  0  0  0  0  0  0  0  0
   -2.4321    2.0815    1.8631 C   0  0  0  0  0  0  0  0  0  0  0  0
   -3.2243    1.8544    0.6016 C   0  0  0  0  0  0  0  0  0  0  0  0
   -3.8823    0.4848    0.6535 C   0  0  0  0  0  0  0  0  0  0  0  0
   -4.4860   -0.0388   -0.4908 C   0  0  0  0  0  0  0  0  0  0  0  0
   -5.0697   -1.2952   -0.4912 C   0  0  0  0  0  0  0  0  0  0  0  0
   -5.6744   -1.8735   -1.5487 O   0  0  0  0  0  0  0  0  0  0  0  0
   -5.8309   -1.1410   -2.7409 C   0  0  0  0  0  0  0  0  0  0  0  0
   -5.0417   -2.0798    0.6947 C   0  0  0  0  0  0  0  0  0  0  0  0
   -5.5942   -3.3036    0.5930 O   0  0  0  0  0  0  0  0  0  0  0  0
   -5.6065   -4.1472    1.7209 C   0  0  0  0  0  0  0  0  0  0  0  0
   -4.4671   -1.5403    1.8355 C   0  0  0  0  0  0  0  0  0  0  0  0
   -3.9029   -0.2732    1.8152 C   0  0  0  0  0  0  0  0  0  0  0  0
   -2.1598    1.8681   -0.5438 C   0  0  0  0  0  0  0  0  0  0  0  0
   -1.3077    0.6485   -0.5249 C   0  0  0  0  0  0  0  0  0  0  0  0
    0.0082    0.6669   -0.2538 C   0  0  0  0  0  0  0  0  0  0  0  0
    0.8408   -0.4281   -0.1552 N   0  0  0  0  0  0  0  0  0  0  0  0
    2.2483   -0.1810    0.0951 C   0  0  0  0  0  0  0  0  0  0  0  0
    3.0496   -0.1393   -1.2184 C   0  0  0  0  0  0  0  0  0  0  0  0
    4.5110    0.0575   -0.9276 C   0  0  0  0  0  0  0  0  0  0  0  0
    5.0909    1.3136   -1.0024 C   0  0  0  0  0  0  0  0  0  0  0  0
    6.4362    1.4927   -0.7195 C   0  0  0  0  0  0  0  0  0  0  0  0
    7.2293    0.4165   -0.3469 C   0  0  0  0  0  0  0  0  0  0  0  0
    8.5414    0.4702   -0.0584 O   0  0  0  0  0  0  0  0  0  0  0  0
    9.2225    1.6989   -0.1714 C   0  0  0  0  0  0  0  0  0  0  0  0
    6.6399   -0.8763   -0.2540 C   0  0  0  0  0  0  0  0  0  0  0  0
    7.4787   -1.8615    0.1185 O   0  0  0  0  0  0  0  0  0  0  0  0
    6.9955   -3.1799    0.2199 C   0  0  0  0  0  0  0  0  0  0  0  0
    5.2938   -1.0302   -0.5456 C   0  0  0  0  0  0  0  0  0  0  0  0
    0.4541   -1.6819   -0.3350 C   0  0  0  0  0  0  0  0  0  0  0  0
   -4.3164    2.9277    0.3448 C   0  0  0  0  0  0  0  0  0  0  0  0
   -5.3879    2.8930    1.4325 C   0  0  0  0  0  0  0  0  0  0  0  0
   -3.7574    4.3415    0.2138 C   0  0  0  0  0  0  0  0  0  0  0  0
   -4.5017    0.5454   -1.3963 H   0  0  0  0  0  0  0  0  0  0  0  0
   -6.4047   -0.2241   -2.5750 H   0  0  0  0  0  0  0  0  0  0  0  0
   -6.3833   -1.7939   -3.4142 H   0  0  0  0  0  0  0  0  0  0  0  0
   -4.8647   -0.8932   -3.1922 H   0  0  0  0  0  0  0  0  0  0  0  0
   -6.1842   -3.7120    2.5417 H   0  0  0  0  0  0  0  0  0  0  0  0
   -6.0845   -5.0678    1.3919 H   0  0  0  0  0  0  0  0  0  0  0  0
   -4.5917   -4.3684    2.0663 H   0  0  0  0  0  0  0  0  0  0  0  0
   -4.4567   -2.0996    2.7566 H   0  0  0  0  0  0  0  0  0  0  0  0
   -3.4866    0.1216    2.7284 H   0  0  0  0  0  0  0  0  0  0  0  0
   -2.6886    1.9259   -1.4973 H   0  0  0  0  0  0  0  0  0  0  0  0
   -1.5433    2.7613   -0.4401 H   0  0  0  0  0  0  0  0  0  0  0  0
   -1.8226   -0.2808   -0.7126 H   0  0  0  0  0  0  0  0  0  0  0  0
   -0.5237    0.0416   -3.3632 H   0  0  0  0  0  0  0  0  0  0  0  0
   -1.5949    1.3724    1.9641 H   0  0  0  0  0  0  0  0  0  0  0  0
    0.5037    1.6109   -0.0760 H   0  0  0  0  0  0  0  0  0  0  0  0
    2.6417   -0.9770    0.7315 H   0  0  0  0  0  0  0  0  0  0  0  0
    2.3657    0.7678    0.6217 H   0  0  0  0  0  0  0  0  0  0  0  0
    2.6779    0.6746   -1.8427 H   0  0  0  0  0  0  0  0  0  0  0  0
    2.8963   -1.0783   -1.7541 H   0  0  0  0  0  0  0  0  0  0  0  0
    4.4971    2.1655   -1.2962 H   0  0  0  0  0  0  0  0  0  0  0  0
    6.8610    2.4801   -0.7957 H   0  0  0  0  0  0  0  0  0  0  0  0
    8.8313    2.4399    0.5322 H   0  0  0  0  0  0  0  0  0  0  0  0
    9.1657    2.0948   -1.1896 H   0  0  0  0  0  0  0  0  0  0  0  0
   10.2601    1.4811    0.0742 H   0  0  0  0  0  0  0  0  0  0  0  0
    7.8515   -3.7826    0.5172 H   0  0  0  0  0  0  0  0  0  0  0  0
    6.2137   -3.2629    0.9816 H   0  0  0  0  0  0  0  0  0  0  0  0
    6.6138   -3.5424   -0.7395 H   0  0  0  0  0  0  0  0  0  0  0  0
    4.8407   -2.0079   -0.4935 H   0  0  0  0  0  0  0  0  0  0  0  0
   -0.3042   -0.6014   -3.7446 H   0  0  0  0  0  0  0  0  0  0  0  0
   -0.5618   -1.9156   -0.5774 H   0  0  0  0  0  0  0  0  0  0  0  0
    1.1696   -2.4714   -0.2204 H   0  0  0  0  0  0  0  0  0  0  0  0
   -4.7953    2.6651   -0.6059 H   0  0  0  0  0  0  0  0  0  0  0  0
   -4.9581    3.1854    2.3855 H   0  0  0  0  0  0  0  0  0  0  0  0
   -5.8170    1.8984    1.5291 H   0  0  0  0  0  0  0  0  0  0  0  0
   -6.1851    3.5884    1.1837 H   0  0  0  0  0  0  0  0  0  0  0  0
   -3.2350    4.6247    1.1225 H   0  0  0  0  0  0  0  0  0  0  0  0
   -3.0826    4.4342   -0.6332 H   0  0  0  0  0  0  0  0  0  0  0  0
   -4.5786    5.0373    0.0627 H   0  0  0  0  0  0  0  0  0  0  0  0
   -2.0619    3.0845    3.4870 H   0  0  0  0  0  0  0  0  0  0  0  0
  1  2  2  0  0  0  0
  2  3  1  0  0  0  0
  3  4  1  0  0  0  0
  4  5  4  0  0  0  0
  5  6  4  0  0  0  0
  6  7  1  0  0  0  0
  7  8  1  0  0  0  0
  6  9  4  0  0  0  0
  9 10  1  0  0  0  0
 10 11  1  0  0  0  0
  9 12  4  0  0  0  0
  4 13  4  0  0  0  0
 12 13  4  0  0  0  0
  3 14  1  0  0  0  0
 14 15  1  0  0  0  0
 15 16  2  0  0  0  0
 16 17  1  0  0  0  0
 17 18  1  0  0  0  0
 18 19  1  0  0  0  0
 19 20  1  0  0  0  0
 20 21  4  0  0  0  0
 21 22  4  0  0  0  0
 22 23  4  0  0  0  0
 23 24  1  0  0  0  0
 24 25  1  0  0  0  0
 23 26  4  0  0  0  0
 26 27  1  0  0  0  0
 27 28  1  0  0  0  0
 20 29  4  0  0  0  0
 26 29  4  0  0  0  0
 17 30  4  0  0  0  0
  3 31  1  0  0  0  0
 31 32  1  0  0  0  0
 31 33  1  0  0  0  0
  5 34  1  0  0  0  0
  8 35  1  0  0  0  0
  8 36  1  0  0  0  0
  8 37  1  0  0  0  0
 11 38  1  0  0  0  0
 11 39  1  0  0  0  0
 11 40  1  0  0  0  0
 12 41  1  0  0  0  0
 13 42  1  0  0  0  0
 14 43  1  0  0  0  0
 14 44  1  0  0  0  0
 15 45  1  0  0  0  0
  2 47  1  0  0  0  0
 16 48  1  0  0  0  0
 18 49  1  0  0  0  0
 18 50  1  0  0  0  0
 19 51  1  0  0  0  0
 19 52  1  0  0  0  0
 21 53  1  0  0  0  0
 22 54  1  0  0  0  0
 25 55  1  0  0  0  0
 25 56  1  0  0  0  0
 25 57  1  0  0  0  0
 28 58  1  0  0  0  0
 28 59  1  0  0  0  0
 28 60  1  0  0  0  0
 29 61  1  0  0  0  0
 46 62  1  0  0  0  0
 30 63  1  0  0  0  0
 30 64  1  0  0  0  0
 31 65  1  0  0  0  0
 32 66  1  0  0  0  0
 32 67  1  0  0  0  0
 32 68  1  0  0  0  0
 33 69  1  0  0  0  0
 33 70  1  0  0  0  0
 33 71  1  0  0  0  0
  1 72  1  0  0  0  0
M  CHG  1   1   1
M  END
