          71
 
N             -1.66453606        2.68013764        2.44620872
C             -1.71411191        2.00729092        1.39684106
C             -2.89952453        1.95045365        0.47251931
C             -3.45025946        0.53225941        0.44673944
C             -4.41353299        0.17961199       -0.50008889
C             -4.95802203       -1.09398946       -0.53957462
O             -5.89136818       -1.51444824       -1.41468077
C             -6.44535954       -0.59975885       -2.33130656
C             -4.52412828       -2.07045446        0.40062257
O             -5.10407713       -3.27816713        0.28961226
C             -4.77949282       -4.28624155        1.21987635
C             -3.56751049       -1.71113291        1.33873800
C             -3.04145892       -0.42748969        1.36181384
C             -2.36758210        2.33500761       -0.93308942
C             -1.48115741        1.26266763       -1.58486664
C             -0.12192977        1.19393436       -1.00293562
N              0.59295650        0.10863569       -0.81196189
C              1.98001574        0.20818201       -0.42921362
C              2.91758003        0.05843175       -1.63871849
C              4.33725109        0.02139748       -1.15500984
C              5.22327515        1.08795051       -1.33620973
C              6.51133647        1.03413802       -0.83134842
C              6.97189533       -0.07363683       -0.12731527
O              8.19389566       -0.22281783        0.40544092
C              9.13743207        0.81783283        0.26776499
C              6.07877554       -1.18022984        0.06055565
O              6.52577658       -2.24459907        0.73624319
C              5.62313572       -3.32691870        0.83303243
C              4.81981216       -1.05413022       -0.46135663
C              0.07945965       -1.22656406       -0.97747204
C             -4.04991892        2.91553258        0.88623212
C             -4.64986005        2.52059185        2.23335810
C             -3.62481988        4.38087335        0.92002173
H             -4.75402235        0.91558121       -1.20940701
H             -6.92000252        0.24288683       -1.81978580
H             -7.20034645       -1.15862194       -2.88066075
H             -5.69202593       -0.22695114       -3.03296411
H             -5.03171517       -3.98355141        2.24036026
H             -5.38233511       -5.14748735        0.93896731
H             -3.71953889       -4.55304249        1.16869905
H             -3.22869690       -2.42500859        2.07134037
H             -2.31975947       -0.18119983        2.12466558
H             -3.21817059        2.52040835       -1.58799664
H             -1.80508161        3.26595358       -0.85503249
H             -1.98749772        0.29832166       -1.56168249
H             -1.35928032        1.54033768       -2.64007676
H             -0.86625051        1.41013020        1.01080894
H              0.38656434        2.13655106       -0.84875953
H              2.19982419       -0.61278771        0.28172852
H              2.16448917        1.16747800        0.05860652
H              2.77025961        0.88952857       -2.33078951
H              2.68956537       -0.87650319       -2.15296462
H              4.89594549        1.96229257       -1.87881535
H              7.16400890        1.87737220       -0.99275979
H              8.78887540        1.73624843        0.74958715
H              9.36026274        1.01773775       -0.78438884
H             10.03712999        0.46512211        0.76811274
H              6.05268317       -4.02613496        1.54632798
H              4.64049097       -2.98557261        1.17519451
H              5.50442838       -3.81496835       -0.13950714
H              0.20893366       -1.57499594       -2.00378335
H             -0.97654211       -1.27443649       -0.71689356
H              0.64120615       -1.89486089       -0.31094684
H             -4.83214635        2.80794760        0.12584275
H             -3.91073549        2.63853658        3.01954877
H             -4.99417218        1.48922829        2.22374298
H             -5.49780267        3.16238282        2.45723577
H             -2.81537613        4.52269291        1.62955070
H             -3.31329861        4.73743487       -0.05827721
H             -4.46683399        4.98820317        1.24137501
H             -0.80573899        2.66721010        2.98671751
