           7
 
N             -3.07271511        1.88631058        0.84069672
C             -4.46592574        1.95758644        0.65762909
C             -2.03221218        1.34792070        0.93961706
O             -0.92620715        0.98001985        1.04218891
H             -4.73088928        3.00494441        0.51778871
H             -4.76753812        1.38886854       -0.22365120
H             -4.98330280        1.57178922        1.53756853
