 xtb: 6.6.1 (8d0f1dd)
          06052420003D

 25 26  0     0  0            999 V2000
    3.4782    1.3310    0.0340 C   0  0  0  0  0  0  0  0  0  0  0  0
    3.0024   -0.0172    0.0626 N   0  0  0  0  0  0  0  0  0  0  0  0
    3.5735   -1.2362    0.0813 C   0  0  0  0  0  0  0  0  0  0  0  0
    2.3844   -1.8866    0.0793 N   0  0  0  0  0  0  0  0  0  0  0  0
    1.7415   -0.6401    0.0627 C   0  0  0  0  0  0  0  0  0  0  0  0
    0.4434   -0.2553    0.0300 C   0  0  0  0  0  0  0  0  0  0  0  0
   -0.1107    1.1328    0.0077 C   0  0  0  0  0  0  0  0  0  0  0  0
    0.4565    2.1956    0.0070 O   0  0  0  0  0  0  0  0  0  0  0  0
   -1.4792    0.9188   -0.0204 N   0  0  0  0  0  0  0  0  0  0  0  0
   -2.4902    1.9440   -0.0400 C   0  0  0  0  0  0  0  0  0  0  0  0
   -1.6897   -0.4326   -0.0204 C   0  0  0  0  0  0  0  0  0  0  0  0
   -2.8895   -0.9187   -0.0575 O   0  0  0  0  0  0  0  0  0  0  0  0
   -0.5843   -1.1416    0.0111 N   0  0  0  0  0  0  0  0  0  0  0  0
   -2.9583   -2.3425   -0.0842 C   0  0  0  0  0  0  0  0  0  0  0  0
    4.0039    1.5692    0.9608 H   0  0  0  0  0  0  0  0  0  0  0  0
    4.1641    1.4704   -0.8032 H   0  0  0  0  0  0  0  0  0  0  0  0
    2.6280    2.0034   -0.0748 H   0  0  0  0  0  0  0  0  0  0  0  0
    4.5905   -1.5698    0.0907 H   0  0  0  0  0  0  0  0  0  0  0  0
   -1.9854    2.9067   -0.1040 H   0  0  0  0  0  0  0  0  0  0  0  0
   -3.1442    1.8081   -0.9014 H   0  0  0  0  0  0  0  0  0  0  0  0
   -3.0884    1.9013    0.8710 H   0  0  0  0  0  0  0  0  0  0  0  0
   -2.4697   -2.7648    0.7946 H   0  0  0  0  0  0  0  0  0  0  0  0
   -2.4722   -2.7274   -0.9825 H   0  0  0  0  0  0  0  0  0  0  0  0
   -4.0161   -2.5904   -0.0913 H   0  0  0  0  0  0  0  0  0  0  0  0
    2.0721   -2.8399    0.1180 H   0  0  0  0  0  0  0  0  0  0  0  0
  1  2  1  0  0  0  0
  2  3  4  0  0  0  0
  3  4  4  0  0  0  0
  2  5  1  0  0  0  0
  4  5  1  0  0  0  0
  5  6  4  0  0  0  0
  6  7  1  0  0  0  0
  7  8  2  0  0  0  0
  7  9  1  0  0  0  0
  9 10  1  0  0  0  0
  9 11  1  0  0  0  0
 11 12  4  0  0  0  0
  6 13  4  0  0  0  0
 11 13  4  0  0  0  0
 12 14  1  0  0  0  0
  1 15  1  0  0  0  0
  1 16  1  0  0  0  0
  1 17  1  0  0  0  0
  3 18  1  0  0  0  0
 10 19  1  0  0  0  0
 10 20  1  0  0  0  0
 10 21  1  0  0  0  0
 14 22  1  0  0  0  0
 14 23  1  0  0  0  0
 14 24  1  0  0  0  0
  4 25  1  0  0  0  0
M  CHG  1   1   1
M  END
