 xtb: 6.6.1 (8d0f1dd)
          06052419583D

 25 26  0     0  0            999 V2000
    2.7000    1.4205   -0.0087 C   0  0  0  0  0  0  0  0  0  0  0  0
    1.9781    0.1773   -0.0243 N   0  0  0  0  0  0  0  0  0  0  0  0
    2.4885   -1.0395   -0.0413 C   0  0  0  0  0  0  0  0  0  0  0  0
    1.4991   -1.9583   -0.0296 N   0  0  0  0  0  0  0  0  0  0  0  0
    0.3018   -1.2952   -0.0038 C   0  0  0  0  0  0  0  0  0  0  0  0
    0.6089    0.0672    0.0015 C   0  0  0  0  0  0  0  0  0  0  0  0
   -0.4987    0.9838    0.0150 C   0  0  0  0  0  0  0  0  0  0  0  0
   -0.2588    2.2745    0.0161 O   0  0  0  0  0  0  0  0  0  0  0  0
   -1.7014    0.5099    0.0253 N   0  0  0  0  0  0  0  0  0  0  0  0
   -1.3872    3.1486    0.0285 C   0  0  0  0  0  0  0  0  0  0  0  0
   -2.0400   -0.8037    0.0247 C   0  0  0  0  0  0  0  0  0  0  0  0
   -3.1551   -1.2196    0.0361 O   0  0  0  0  0  0  0  0  0  0  0  0
   -0.9365   -1.7681    0.0072 N   0  0  0  0  0  0  0  0  0  0  0  0
   -1.2442   -3.1834   -0.0005 C   0  0  0  0  0  0  0  0  0  0  0  0
    2.8134    1.7756    1.0172 H   0  0  0  0  0  0  0  0  0  0  0  0
    3.6860    1.2890   -0.4506 H   0  0  0  0  0  0  0  0  0  0  0  0
    2.1377    2.1690   -0.5660 H   0  0  0  0  0  0  0  0  0  0  0  0
    3.5348   -1.2756   -0.0629 H   0  0  0  0  0  0  0  0  0  0  0  0
   -0.9786    4.1586    0.0725 H   0  0  0  0  0  0  0  0  0  0  0  0
   -1.9845    3.0079   -0.8733 H   0  0  0  0  0  0  0  0  0  0  0  0
   -2.0127    2.9425    0.8958 H   0  0  0  0  0  0  0  0  0  0  0  0
   -0.8653   -3.6675    0.9006 H   0  0  0  0  0  0  0  0  0  0  0  0
   -0.8309   -3.6650   -0.8875 H   0  0  0  0  0  0  0  0  0  0  0  0
   -2.3311   -3.2707   -0.0206 H   0  0  0  0  0  0  0  0  0  0  0  0
    1.6371   -2.9594   -0.0401 H   0  0  0  0  0  0  0  0  0  0  0  0
  1  2  1  0  0  0  0
  2  3  4  0  0  0  0
  3  4  4  0  0  0  0
  4  5  1  0  0  0  0
  2  6  1  0  0  0  0
  5  6  4  0  0  0  0
  6  7  1  0  0  0  0
  7  8  1  0  0  0  0
  7  9  2  0  0  0  0
  8 10  1  0  0  0  0
  9 11  1  0  0  0  0
 11 12  2  0  0  0  0
  5 13  4  0  0  0  0
 11 13  1  0  0  0  0
 13 14  1  0  0  0  0
  1 15  1  0  0  0  0
  1 16  1  0  0  0  0
  1 17  1  0  0  0  0
  3 18  1  0  0  0  0
 10 19  1  0  0  0  0
 10 20  1  0  0  0  0
 10 21  1  0  0  0  0
 14 22  1  0  0  0  0
 14 23  1  0  0  0  0
 14 24  1  0  0  0  0
  4 25  1  0  0  0  0
M  CHG  1   1   1
M  END
