 xtb: 6.6.1 (8d0f1dd)
          06052419583D

 25 25  0     0  0            999 V2000
    2.8809    1.0997    0.2767 C   0  0  0  0  0  0  0  0  0  0  0  0
    2.1065   -0.0945    0.0689 N   0  0  0  0  0  0  0  0  0  0  0  0
    2.5857   -1.3205   -0.0351 C   0  0  0  0  0  0  0  0  0  0  0  0
    1.5731   -2.1731   -0.2402 N   0  0  0  0  0  0  0  0  0  0  0  0
    0.3902   -1.4680   -0.2354 C   0  0  0  0  0  0  0  0  0  0  0  0
    0.7350   -0.1408   -0.0108 C   0  0  0  0  0  0  0  0  0  0  0  0
   -0.0881    1.0974   -0.2066 C   0  0  0  0  0  0  0  0  0  0  0  0
    0.3552    1.9866   -0.8956 O   0  0  0  0  0  0  0  0  0  0  0  0
   -1.3284    1.1118    0.3594 N   0  0  0  0  0  0  0  0  0  0  0  0
   -2.2609    2.1513   -0.0507 C   0  0  0  0  0  0  0  0  0  0  0  0
   -1.7428    0.2719    1.3831 C   0  0  0  0  0  0  0  0  0  0  0  0
   -2.8451    0.2918    1.8332 O   0  0  0  0  0  0  0  0  0  0  0  0
   -0.8411   -2.0170   -0.2695 N   0  0  0  0  0  0  0  0  0  0  0  0
   -1.3172   -2.8464   -1.0869 C   0  0  0  0  0  0  0  0  0  0  0  0
    2.6930    1.5010    1.2737 H   0  0  0  0  0  0  0  0  0  0  0  0
    3.9391    0.8749    0.1719 H   0  0  0  0  0  0  0  0  0  0  0  0
    2.5853    1.8536   -0.4548 H   0  0  0  0  0  0  0  0  0  0  0  0
    3.6202   -1.5954    0.0418 H   0  0  0  0  0  0  0  0  0  0  0  0
   -1.7167    2.9190   -0.5951 H   0  0  0  0  0  0  0  0  0  0  0  0
   -3.0328    1.7216   -0.6890 H   0  0  0  0  0  0  0  0  0  0  0  0
   -2.7366    2.5761    0.8309 H   0  0  0  0  0  0  0  0  0  0  0  0
   -0.9353   -0.3716    1.7601 H   0  0  0  0  0  0  0  0  0  0  0  0
   -0.8100   -3.2028   -1.9831 H   0  0  0  0  0  0  0  0  0  0  0  0
   -2.3062   -3.2320   -0.8806 H   0  0  0  0  0  0  0  0  0  0  0  0
    1.6576   -3.1762   -0.3353 H   0  0  0  0  0  0  0  0  0  0  0  0
  1  2  1  0  0  0  0
  2  3  4  0  0  0  0
  3  4  4  0  0  0  0
  4  5  1  0  0  0  0
  2  6  1  0  0  0  0
  5  6  4  0  0  0  0
  6  7  1  0  0  0  0
  7  8  2  0  0  0  0
  7  9  1  0  0  0  0
  9 10  1  0  0  0  0
  9 11  1  0  0  0  0
 11 12  2  0  0  0  0
  5 13  1  0  0  0  0
 13 14  2  0  0  0  0
  1 15  1  0  0  0  0
  1 16  1  0  0  0  0
  1 17  1  0  0  0  0
  3 18  1  0  0  0  0
 10 19  1  0  0  0  0
 10 20  1  0  0  0  0
 10 21  1  0  0  0  0
 11 22  1  0  0  0  0
 14 23  1  0  0  0  0
 14 24  1  0  0  0  0
  4 25  1  0  0  0  0
M  CHG  1   1   1
M  END
