 xtb: 6.6.1 (8d0f1dd)
          04062411143D

 72 72  0     0  0            999 V2000
   -1.9465    2.9351    2.1075 N   0  0  0  0  0  0  0  0  0  0  0  0
   -1.8933    2.1486    1.1389 C   0  0  0  0  0  0  0  0  0  0  0  0
   -3.0303    1.8662    0.1964 C   0  0  0  0  0  0  0  0  0  0  0  0
   -3.4355    0.4048    0.3162 C   0  0  0  0  0  0  0  0  0  0  0  0
   -4.2917   -0.1615   -0.6306 C   0  0  0  0  0  0  0  0  0  0  0  0
   -4.7121   -1.4772   -0.5296 C   0  0  0  0  0  0  0  0  0  0  0  0
   -5.5391   -2.1018   -1.3945 O   0  0  0  0  0  0  0  0  0  0  0  0
   -6.0943   -1.3770   -2.4659 C   0  0  0  0  0  0  0  0  0  0  0  0
   -4.2637   -2.2744    0.5578 C   0  0  0  0  0  0  0  0  0  0  0  0
   -4.7246   -3.5417    0.5759 O   0  0  0  0  0  0  0  0  0  0  0  0
   -4.4018   -4.3719    1.6669 C   0  0  0  0  0  0  0  0  0  0  0  0
   -3.4156   -1.7058    1.4944 C   0  0  0  0  0  0  0  0  0  0  0  0
   -3.0088   -0.3832    1.3737 C   0  0  0  0  0  0  0  0  0  0  0  0
   -2.4804    2.1577   -1.2243 C   0  0  0  0  0  0  0  0  0  0  0  0
   -1.4792    1.1103   -1.7417 C   0  0  0  0  0  0  0  0  0  0  0  0
   -0.1563    1.1941   -1.0841 C   0  0  0  0  0  0  0  0  0  0  0  0
    0.5773    0.1550   -0.7024 N   0  0  0  0  0  0  0  0  0  0  0  0
    1.9294    0.3525   -0.2365 C   0  0  0  0  0  0  0  0  0  0  0  0
    2.9549    0.1735   -1.3738 C   0  0  0  0  0  0  0  0  0  0  0  0
    4.3551    0.2066   -0.8083 C   0  0  0  0  0  0  0  0  0  0  0  0
    5.1835    1.2458   -1.0830 C   0  0  0  0  0  0  0  0  0  0  0  0
    6.5176    1.5069   -0.6365 C   0  0  0  0  0  0  0  0  0  0  0  0
    7.2353    0.6860    0.1597 C   0  0  0  0  0  0  0  0  0  0  0  0
    8.4651    0.8628    0.6436 O   0  0  0  0  0  0  0  0  0  0  0  0
    9.1640    2.0541    0.3300 C   0  0  0  0  0  0  0  0  0  0  0  0
    4.6026   -1.9423    0.6225 C   0  0  0  0  0  0  0  0  0  0  0  0
    4.6807   -3.0091    1.3536 O   0  0  0  0  0  0  0  0  0  0  0  0
    5.2741   -4.1498    0.7553 C   0  0  0  0  0  0  0  0  0  0  0  0
    4.6699   -0.9042   -0.0010 C   0  0  0  0  0  0  0  0  0  0  0  0
    0.0810   -1.1984   -0.7756 C   0  0  0  0  0  0  0  0  0  0  0  0
   -4.2903    2.7404    0.4671 C   0  0  0  0  0  0  0  0  0  0  0  0
   -4.8896    2.4436    1.8397 C   0  0  0  0  0  0  0  0  0  0  0  0
   -4.0226    4.2372    0.3346 C   0  0  0  0  0  0  0  0  0  0  0  0
   -4.6480    0.4409   -1.4496 H   0  0  0  0  0  0  0  0  0  0  0  0
   -6.6968   -0.5349   -2.1123 H   0  0  0  0  0  0  0  0  0  0  0  0
   -6.7355   -2.0814   -2.9921 H   0  0  0  0  0  0  0  0  0  0  0  0
   -5.3211   -1.0132   -3.1506 H   0  0  0  0  0  0  0  0  0  0  0  0
   -4.7535   -3.9467    2.6116 H   0  0  0  0  0  0  0  0  0  0  0  0
   -4.9169   -5.3122    1.4806 H   0  0  0  0  0  0  0  0  0  0  0  0
   -3.3242   -4.5554    1.7275 H   0  0  0  0  0  0  0  0  0  0  0  0
   -3.0733   -2.2809    2.3393 H   0  0  0  0  0  0  0  0  0  0  0  0
   -2.3733    0.0338    2.1397 H   0  0  0  0  0  0  0  0  0  0  0  0
   -3.3166    2.2043   -1.9209 H   0  0  0  0  0  0  0  0  0  0  0  0
   -2.0006    3.1371   -1.2208 H   0  0  0  0  0  0  0  0  0  0  0  0
   -1.9108    0.1150   -1.6481 H   0  0  0  0  0  0  0  0  0  0  0  0
   -1.3314    1.3113   -2.8111 H   0  0  0  0  0  0  0  0  0  0  0  0
   -0.9757    1.6075    0.8368 H   0  0  0  0  0  0  0  0  0  0  0  0
    0.3196    2.1628   -1.0388 H   0  0  0  0  0  0  0  0  0  0  0  0
    2.1464   -0.3687    0.5550 H   0  0  0  0  0  0  0  0  0  0  0  0
    2.0285    1.3585    0.1798 H   0  0  0  0  0  0  0  0  0  0  0  0
    2.8209    0.9651   -2.1142 H   0  0  0  0  0  0  0  0  0  0  0  0
    2.7802   -0.7921   -1.8590 H   0  0  0  0  0  0  0  0  0  0  0  0
    4.7829    2.0066   -1.7425 H   0  0  0  0  0  0  0  0  0  0  0  0
    6.9350    2.4460   -0.9742 H   0  0  0  0  0  0  0  0  0  0  0  0
    8.6234    2.9343    0.6882 H   0  0  0  0  0  0  0  0  0  0  0  0
    9.3324    2.1429   -0.7475 H   0  0  0  0  0  0  0  0  0  0  0  0
   10.1230    1.9773    0.8433 H   0  0  0  0  0  0  0  0  0  0  0  0
    6.1119   -3.8721    0.1151 H   0  0  0  0  0  0  0  0  0  0  0  0
    5.6230   -4.7751    1.5750 H   0  0  0  0  0  0  0  0  0  0  0  0
    4.5306   -4.7021    0.1689 H   0  0  0  0  0  0  0  0  0  0  0  0
    6.8145   -0.2593    0.4849 H   0  0  0  0  0  0  0  0  0  0  0  0
   -0.1082   -1.4946   -1.8100 H   0  0  0  0  0  0  0  0  0  0  0  0
   -0.8492   -1.2947   -0.2078 H   0  0  0  0  0  0  0  0  0  0  0  0
    0.8188   -1.8751   -0.3505 H   0  0  0  0  0  0  0  0  0  0  0  0
   -5.0300    2.4583   -0.2911 H   0  0  0  0  0  0  0  0  0  0  0  0
   -4.1902    2.7261    2.6198 H   0  0  0  0  0  0  0  0  0  0  0  0
   -5.1296    1.3883    1.9442 H   0  0  0  0  0  0  0  0  0  0  0  0
   -5.8036    3.0169    1.9700 H   0  0  0  0  0  0  0  0  0  0  0  0
   -3.2559    4.5461    1.0384 H   0  0  0  0  0  0  0  0  0  0  0  0
   -3.7176    4.5085   -0.6725 H   0  0  0  0  0  0  0  0  0  0  0  0
   -4.9338    4.7833    0.5640 H   0  0  0  0  0  0  0  0  0  0  0  0
   -1.1034    3.0688    2.6570 H   0  0  0  0  0  0  0  0  0  0  0  0
  1  2  2  0  0  0  0
  2  3  1  0  0  0  0
  3  4  1  0  0  0  0
  4  5  4  0  0  0  0
  5  6  4  0  0  0  0
  6  7  1  0  0  0  0
  7  8  1  0  0  0  0
  6  9  4  0  0  0  0
  9 10  1  0  0  0  0
 10 11  1  0  0  0  0
  9 12  4  0  0  0  0
  4 13  4  0  0  0  0
 12 13  4  0  0  0  0
  3 14  1  0  0  0  0
 14 15  1  0  0  0  0
 15 16  1  0  0  0  0
 16 17  4  0  0  0  0
 17 18  1  0  0  0  0
 18 19  1  0  0  0  0
 19 20  1  0  0  0  0
 20 21  2  0  0  0  0
 21 22  4  0  0  0  0
 22 23  2  0  0  0  0
 23 24  1  0  0  0  0
 24 25  1  0  0  0  0
 26 27  1  0  0  0  0
 27 28  1  0  0  0  0
 20 29  1  0  0  0  0
 26 29  3  0  0  0  0
 17 30  1  0  0  0  0
  3 31  1  0  0  0  0
 31 32  1  0  0  0  0
 31 33  1  0  0  0  0
  5 34  1  0  0  0  0
  8 35  1  0  0  0  0
  8 36  1  0  0  0  0
  8 37  1  0  0  0  0
 11 38  1  0  0  0  0
 11 39  1  0  0  0  0
 11 40  1  0  0  0  0
 12 41  1  0  0  0  0
 13 42  1  0  0  0  0
 14 43  1  0  0  0  0
 14 44  1  0  0  0  0
 15 45  1  0  0  0  0
 15 46  1  0  0  0  0
  2 47  1  0  0  0  0
 16 48  1  0  0  0  0
 18 49  1  0  0  0  0
 18 50  1  0  0  0  0
 19 51  1  0  0  0  0
 19 52  1  0  0  0  0
 21 53  1  0  0  0  0
 22 54  1  0  0  0  0
 25 55  1  0  0  0  0
 25 56  1  0  0  0  0
 25 57  1  0  0  0  0
 28 58  1  0  0  0  0
 28 59  1  0  0  0  0
 28 60  1  0  0  0  0
 23 61  1  0  0  0  0
 30 62  1  0  0  0  0
 30 63  1  0  0  0  0
 30 64  1  0  0  0  0
 31 65  1  0  0  0  0
 32 66  1  0  0  0  0
 32 67  1  0  0  0  0
 32 68  1  0  0  0  0
 33 69  1  0  0  0  0
 33 70  1  0  0  0  0
 33 71  1  0  0  0  0
  1 72  1  0  0  0  0
M  CHG  1   1   1
M  END
