 xtb: 6.6.1 (8d0f1dd)
          06052419583D

 25 25  0     0  0            999 V2000
    3.1405    1.1434   -0.0847 C   0  0  0  0  0  0  0  0  0  0  0  0
    2.2261    0.0334   -0.0424 N   0  0  0  0  0  0  0  0  0  0  0  0
    2.5382   -1.2528    0.0223 C   0  0  0  0  0  0  0  0  0  0  0  0
    1.4138   -1.9976    0.0577 N   0  0  0  0  0  0  0  0  0  0  0  0
    0.3452   -1.1522    0.0141 C   0  0  0  0  0  0  0  0  0  0  0  0
    0.8526    0.1395   -0.0469 C   0  0  0  0  0  0  0  0  0  0  0  0
    0.0067    1.2968   -0.1207 C   0  0  0  0  0  0  0  0  0  0  0  0
    0.3532    2.4546   -0.2038 O   0  0  0  0  0  0  0  0  0  0  0  0
   -1.3765    0.9320   -0.0888 N   0  0  0  0  0  0  0  0  0  0  0  0
   -2.2731    1.9283   -0.1454 C   0  0  0  0  0  0  0  0  0  0  0  0
   -1.8984   -0.3992   -0.0216 C   0  0  0  0  0  0  0  0  0  0  0  0
   -3.0795   -0.6026   -0.0016 O   0  0  0  0  0  0  0  0  0  0  0  0
   -0.9716   -1.4375    0.0202 N   0  0  0  0  0  0  0  0  0  0  0  0
   -1.4521   -2.8063    0.0898 C   0  0  0  0  0  0  0  0  0  0  0  0
    3.6109    1.2837    0.8895 H   0  0  0  0  0  0  0  0  0  0  0  0
    3.9171    0.9657   -0.8274 H   0  0  0  0  0  0  0  0  0  0  0  0
    2.5848    2.0455   -0.3380 H   0  0  0  0  0  0  0  0  0  0  0  0
    3.5343   -1.6496    0.0419 H   0  0  0  0  0  0  0  0  0  0  0  0
   -1.7011    4.6966    0.6131 H   0  0  0  0  0  0  0  0  0  0  0  0
   -1.9163    2.9529   -0.1092 H   0  0  0  0  0  0  0  0  0  0  0  0
   -3.3151    1.6789   -0.1146 H   0  0  0  0  0  0  0  0  0  0  0  0
   -1.1174   -3.2789    1.0131 H   0  0  0  0  0  0  0  0  0  0  0  0
   -1.1056   -3.3742   -0.7733 H   0  0  0  0  0  0  0  0  0  0  0  0
   -2.5401   -2.7759    0.0817 H   0  0  0  0  0  0  0  0  0  0  0  0
    1.3838   -3.0062    0.1061 H   0  0  0  0  0  0  0  0  0  0  0  0
  1  2  1  0  0  0  0
  2  3  4  0  0  0  0
  3  4  4  0  0  0  0
  4  5  1  0  0  0  0
  2  6  1  0  0  0  0
  5  6  4  0  0  0  0
  6  7  1  0  0  0  0
  7  8  2  0  0  0  0
  7  9  1  0  0  0  0
  9 10  4  0  0  0  0
  9 11  1  0  0  0  0
 11 12  2  0  0  0  0
  5 13  1  0  0  0  0
 11 13  1  0  0  0  0
 13 14  1  0  0  0  0
  1 15  1  0  0  0  0
  1 16  1  0  0  0  0
  1 17  1  0  0  0  0
  3 18  1  0  0  0  0
 10 20  1  0  0  0  0
 10 21  1  0  0  0  0
 14 22  1  0  0  0  0
 14 23  1  0  0  0  0
 14 24  1  0  0  0  0
  4 25  1  0  0  0  0
M  CHG  1   1   1
M  END
