          38
 
C             -2.01814362        2.48403569       -2.23820104
C             -1.54963768        1.15206984       -1.82882812
C             -0.22075839        1.12416384       -1.19704984
N              0.35467937        0.01760063       -0.75139934
C              1.72572614        0.02403011       -0.29959010
C              2.68739775       -0.42827312       -1.41682489
C              4.11552237       -0.30186182       -0.96565754
C              4.79875389        0.89340116       -1.12444643
C              6.11172357        1.02299468       -0.70013860
C              6.76911697       -0.04289209       -0.10193732
O              8.03783064       -0.03289774        0.34367511
C              8.80620266        1.14107045        0.21048204
C              6.07497040       -1.27328652        0.06871779
O              6.78867408       -2.25542021        0.65275247
C              6.20227462       -3.52170941        0.83666772
C              4.76138922       -1.37797437       -0.36190308
C             -0.30786046       -1.25675755       -0.87081536
H             -2.94897423        2.57072019       -2.75821427
H             -1.40141090        3.35407984       -2.13466097
H             -2.29491262        0.69803292       -1.14896105
H             -1.55409041        0.47169853       -2.69890776
H              0.32634045        2.04572293       -1.08006101
H              1.82357207       -0.64213745        0.56125379
H              1.99585504        1.03382964        0.01478625
H              2.52062558        0.20236481       -2.29206302
H              2.47127473       -1.46202071       -1.68962484
H              4.31379497        1.73419440       -1.59661248
H              6.61986947        1.96176786       -0.84708257
H              8.35626296        1.97801862        0.75300566
H              8.93930704        1.41515059       -0.84036586
H              9.77484982        0.90668759        0.64767396
H              6.97209835       -4.13478425        1.30115816
H              5.33341071       -3.46926436        1.50045259
H              5.90918735       -3.97074626       -0.11737434
H              4.23032966       -2.30967701       -0.24437153
H             -0.48056515       -1.51582232       -1.91851969
H             -1.27496631       -1.22980974       -0.36180608
H              0.30547530       -2.03016331       -0.41646861
