 xtb: 6.6.1 (8d0f1dd)
          06052418513D

 24 25  0     0  0            999 V2000
    3.1536    1.1996   -0.0004 C   0  0  0  0  0  0  0  0  0  0  0  0
    2.2337    0.0779   -0.0002 N   0  0  0  0  0  0  0  0  0  0  0  0
    2.5217   -1.2343   -0.0007 C   0  0  0  0  0  0  0  0  0  0  0  0
    1.4002   -1.9759   -0.0002 N   0  0  0  0  0  0  0  0  0  0  0  0
    0.3733   -1.0866    0.0005 C   0  0  0  0  0  0  0  0  0  0  0  0
    0.9144    0.1652    0.0006 C   0  0  0  0  0  0  0  0  0  0  0  0
    0.0231    1.2468    0.0013 C   0  0  0  0  0  0  0  0  0  0  0  0
    0.4535    2.4299    0.0014 O   0  0  0  0  0  0  0  0  0  0  0  0
   -1.3071    1.0558    0.0020 N   0  0  0  0  0  0  0  0  0  0  0  0
   -2.1676    2.2029    0.0028 C   0  0  0  0  0  0  0  0  0  0  0  0
   -1.7631   -0.2171    0.0020 C   0  0  0  0  0  0  0  0  0  0  0  0
   -3.0002   -0.3801    0.0026 O   0  0  0  0  0  0  0  0  0  0  0  0
   -0.9572   -1.2816    0.0012 N   0  0  0  0  0  0  0  0  0  0  0  0
   -1.4379   -2.6463    0.0012 C   0  0  0  0  0  0  0  0  0  0  0  0
    3.3069    1.4781    1.0624 H   0  0  0  0  0  0  0  0  0  0  0  0
    4.1082    0.8950   -0.4842 H   0  0  0  0  0  0  0  0  0  0  0  0
    2.7718    2.0561   -0.5617 H   0  0  0  0  0  0  0  0  0  0  0  0
    3.5093   -1.6616   -0.0013 H   0  0  0  0  0  0  0  0  0  0  0  0
   -1.7737    3.0211    0.6762 H   0  0  0  0  0  0  0  0  0  0  0  0
   -2.0905    2.6575   -1.0288 H   0  0  0  0  0  0  0  0  0  0  0  0
   -3.2198    1.9785    0.2127 H   0  0  0  0  0  0  0  0  0  0  0  0
   -0.8596   -3.1931    0.7880 H   0  0  0  0  0  0  0  0  0  0  0  0
   -1.1155   -3.1164   -0.9685 H   0  0  0  0  0  0  0  0  0  0  0  0
   -2.5211   -2.7324    0.1161 H   0  0  0  0  0  0  0  0  0  0  0  0
  1  2  1  0  0  0  0
  2  3  4  0  0  0  0
  3  4  4  0  0  0  0
  4  5  4  0  0  0  0
  2  6  1  0  0  0  0
  5  6  4  0  0  0  0
  6  7  1  0  0  0  0
  7  8  2  0  0  0  0
  7  9  1  0  0  0  0
  9 10  1  0  0  0  0
  9 11  1  0  0  0  0
 11 12  2  0  0  0  0
  5 13  1  0  0  0  0
 11 13  1  0  0  0  0
 13 14  1  0  0  0  0
  1 15  1  0  0  0  0
  1 16  1  0  0  0  0
  1 17  1  0  0  0  0
  3 18  1  0  0  0  0
 10 19  1  0  0  0  0
 10 20  1  0  0  0  0
 10 21  1  0  0  0  0
 14 22  1  0  0  0  0
 14 23  1  0  0  0  0
 14 24  1  0  0  0  0
M  END
