          24
 
C              3.21599840        1.15745551        0.01780834
N              2.27716995        0.06658971        0.00078084
C              2.56041652       -1.22398926       -0.01034437
N              1.42787792       -1.94988270       -0.00448200
C              0.36654440       -1.07454863        0.00846024
C              0.91124900        0.20550594        0.01247874
C              0.08791883        1.39680955        0.01615065
O              0.49203178        2.53614752        0.02206671
N             -1.27018650        1.06540954        0.00915932
C             -2.22279194        2.17376291       -0.00012056
C             -1.85109065       -0.17285868        0.00201132
O             -3.03218431       -0.35746062       -0.01283147
N             -0.96055940       -1.33223068        0.01449565
C             -1.52781766       -2.55016007        0.04316605
H              3.73276940        1.19672746        0.97779982
H              3.95411540        1.03295463       -0.77370870
H              2.67159210        2.09051225       -0.12677873
H              3.54926852       -1.64370653       -0.02435481
H             -1.65910976        3.10209827        0.04202102
H             -2.82168958        2.13742957       -0.90894734
H             -2.88751672        2.09470822        0.85847254
H             -0.92822523       -3.43687700        0.03818536
H             -2.59819980       -2.59331329        0.06505381
H              1.38306526       -2.95892989       -0.02210119
