 xtb: 6.6.1 (8d0f1dd)
          04062411133D

 72 73  0     0  0            999 V2000
   -2.3777    2.9666    2.5302 N   0  0  0  0  0  0  0  0  0  0  0  0
   -2.1503    2.1889    1.5775 C   0  0  0  0  0  0  0  0  0  0  0  0
   -3.1083    1.9642    0.4348 C   0  0  0  0  0  0  0  0  0  0  0  0
   -3.6582    0.5569    0.5162 C   0  0  0  0  0  0  0  0  0  0  0  0
   -4.5688    0.1100   -0.5862 C   0  0  0  0  0  0  0  0  0  0  0  0
   -4.9840   -1.3170   -0.5259 C   0  0  0  0  0  0  0  0  0  0  0  0
   -5.7783   -1.8498   -1.4598 O   0  0  0  0  0  0  0  0  0  0  0  0
   -6.3110   -1.0506   -2.4885 C   0  0  0  0  0  0  0  0  0  0  0  0
   -4.5726   -2.1618    0.5093 C   0  0  0  0  0  0  0  0  0  0  0  0
   -5.0077   -3.4414    0.4246 O   0  0  0  0  0  0  0  0  0  0  0  0
   -4.6486   -4.3521    1.4383 C   0  0  0  0  0  0  0  0  0  0  0  0
   -3.7761   -1.6471    1.5301 C   0  0  0  0  0  0  0  0  0  0  0  0
   -3.3400   -0.3105    1.5114 C   0  0  0  0  0  0  0  0  0  0  0  0
   -2.2360    2.0824   -0.8661 C   0  0  0  0  0  0  0  0  0  0  0  0
   -1.3660    0.8867   -1.0616 C   0  0  0  0  0  0  0  0  0  0  0  0
   -0.0647    0.8781   -0.7242 C   0  0  0  0  0  0  0  0  0  0  0  0
    0.7669   -0.1929   -0.7354 N   0  0  0  0  0  0  0  0  0  0  0  0
    2.1562   -0.0646   -0.3877 C   0  0  0  0  0  0  0  0  0  0  0  0
    3.1041   -0.2535   -1.5888 C   0  0  0  0  0  0  0  0  0  0  0  0
    4.5208   -0.0728   -1.1271 C   0  0  0  0  0  0  0  0  0  0  0  0
    5.1838    1.1310   -1.3077 C   0  0  0  0  0  0  0  0  0  0  0  0
    6.4692    1.3150   -0.8226 C   0  0  0  0  0  0  0  0  0  0  0  0
    7.1170    0.2981   -0.1351 C   0  0  0  0  0  0  0  0  0  0  0  0
    8.3537    0.3676    0.3907 O   0  0  0  0  0  0  0  0  0  0  0  0
    9.0942    1.5580    0.2525 C   0  0  0  0  0  0  0  0  0  0  0  0
    6.4465   -0.9434    0.0532 C   0  0  0  0  0  0  0  0  0  0  0  0
    7.1483   -1.8755    0.7283 O   0  0  0  0  0  0  0  0  0  0  0  0
    6.5702   -3.1369    0.9646 C   0  0  0  0  0  0  0  0  0  0  0  0
    5.1635   -1.1043   -0.4453 C   0  0  0  0  0  0  0  0  0  0  0  0
    0.2836   -1.4959   -1.1122 C   0  0  0  0  0  0  0  0  0  0  0  0
   -4.2692    2.9975    0.3954 C   0  0  0  0  0  0  0  0  0  0  0  0
   -5.1998    2.8270    1.5946 C   0  0  0  0  0  0  0  0  0  0  0  0
   -3.7838    4.4425    0.3215 C   0  0  0  0  0  0  0  0  0  0  0  0
   -5.4719    0.7392   -0.5860 H   0  0  0  0  0  0  0  0  0  0  0  0
   -6.9501   -0.2556   -2.0901 H   0  0  0  0  0  0  0  0  0  0  0  0
   -6.9146   -1.7214   -3.0988 H   0  0  0  0  0  0  0  0  0  0  0  0
   -5.5257   -0.6067   -3.1089 H   0  0  0  0  0  0  0  0  0  0  0  0
   -5.0365   -4.0420    2.4130 H   0  0  0  0  0  0  0  0  0  0  0  0
   -5.1062   -5.2973    1.1524 H   0  0  0  0  0  0  0  0  0  0  0  0
   -3.5632   -4.4793    1.4987 H   0  0  0  0  0  0  0  0  0  0  0  0
   -3.4759   -2.2723    2.3530 H   0  0  0  0  0  0  0  0  0  0  0  0
   -2.7221    0.0148    2.3335 H   0  0  0  0  0  0  0  0  0  0  0  0
   -2.9051    2.2140   -1.7188 H   0  0  0  0  0  0  0  0  0  0  0  0
   -1.6210    2.9788   -0.7808 H   0  0  0  0  0  0  0  0  0  0  0  0
   -4.0871    0.3023   -1.5553 H   0  0  0  0  0  0  0  0  0  0  0  0
   -1.8369   -0.0133   -1.4219 H   0  0  0  0  0  0  0  0  0  0  0  0
   -1.2205    1.6135    1.4641 H   0  0  0  0  0  0  0  0  0  0  0  0
    0.4039    1.7974   -0.3967 H   0  0  0  0  0  0  0  0  0  0  0  0
    2.4057   -0.8085    0.3785 H   0  0  0  0  0  0  0  0  0  0  0  0
    2.3267    0.9264    0.0384 H   0  0  0  0  0  0  0  0  0  0  0  0
    2.8583    0.4804   -2.3566 H   0  0  0  0  0  0  0  0  0  0  0  0
    2.9676   -1.2513   -2.0078 H   0  0  0  0  0  0  0  0  0  0  0  0
    4.7006    1.9371   -1.8383 H   0  0  0  0  0  0  0  0  0  0  0  0
    6.9601    2.2606   -0.9840 H   0  0  0  0  0  0  0  0  0  0  0  0
    8.5878    2.4024    0.7302 H   0  0  0  0  0  0  0  0  0  0  0  0
    9.2824    1.7924   -0.7995 H   0  0  0  0  0  0  0  0  0  0  0  0
   10.0410    1.3730    0.7563 H   0  0  0  0  0  0  0  0  0  0  0  0
    7.3188   -3.7029    1.5157 H   0  0  0  0  0  0  0  0  0  0  0  0
    5.6618   -3.0547    1.5699 H   0  0  0  0  0  0  0  0  0  0  0  0
    6.3413   -3.6556    0.0284 H   0  0  0  0  0  0  0  0  0  0  0  0
    4.6490   -2.0434   -0.3138 H   0  0  0  0  0  0  0  0  0  0  0  0
    0.0886   -1.5545   -2.1875 H   0  0  0  0  0  0  0  0  0  0  0  0
   -0.6426   -1.7230   -0.5782 H   0  0  0  0  0  0  0  0  0  0  0  0
    1.0259   -2.2475   -0.8518 H   0  0  0  0  0  0  0  0  0  0  0  0
   -4.8385    2.8006   -0.5211 H   0  0  0  0  0  0  0  0  0  0  0  0
   -4.6748    3.0979    2.5050 H   0  0  0  0  0  0  0  0  0  0  0  0
   -5.5460    1.8000    1.6899 H   0  0  0  0  0  0  0  0  0  0  0  0
   -6.0648    3.4765    1.4854 H   0  0  0  0  0  0  0  0  0  0  0  0
   -3.1902    4.6882    1.1966 H   0  0  0  0  0  0  0  0  0  0  0  0
   -3.1955    4.6250   -0.5750 H   0  0  0  0  0  0  0  0  0  0  0  0
   -4.6453    5.1067    0.2974 H   0  0  0  0  0  0  0  0  0  0  0  0
   -1.6554    3.0658    3.2367 H   0  0  0  0  0  0  0  0  0  0  0  0
  1  2  2  0  0  0  0
  2  3  1  0  0  0  0
  3  4  1  0  0  0  0
  4  5  1  0  0  0  0
  5  6  1  0  0  0  0
  6  7  1  0  0  0  0
  7  8  1  0  0  0  0
  6  9  4  0  0  0  0
  9 10  1  0  0  0  0
 10 11  1  0  0  0  0
  9 12  4  0  0  0  0
  4 13  2  0  0  0  0
 12 13  4  0  0  0  0
  3 14  1  0  0  0  0
 14 15  1  0  0  0  0
 15 16  2  0  0  0  0
 16 17  4  0  0  0  0
 17 18  1  0  0  0  0
 18 19  1  0  0  0  0
 19 20  1  0  0  0  0
 20 21  4  0  0  0  0
 21 22  4  0  0  0  0
 22 23  4  0  0  0  0
 23 24  1  0  0  0  0
 24 25  1  0  0  0  0
 23 26  4  0  0  0  0
 26 27  1  0  0  0  0
 27 28  1  0  0  0  0
 20 29  4  0  0  0  0
 26 29  4  0  0  0  0
 17 30  1  0  0  0  0
  3 31  1  0  0  0  0
 31 32  1  0  0  0  0
 31 33  1  0  0  0  0
  5 34  1  0  0  0  0
  8 35  1  0  0  0  0
  8 36  1  0  0  0  0
  8 37  1  0  0  0  0
 11 38  1  0  0  0  0
 11 39  1  0  0  0  0
 11 40  1  0  0  0  0
 12 41  1  0  0  0  0
 13 42  1  0  0  0  0
 14 43  1  0  0  0  0
 14 44  1  0  0  0  0
  5 45  1  0  0  0  0
 15 46  1  0  0  0  0
  2 47  1  0  0  0  0
 16 48  1  0  0  0  0
 18 49  1  0  0  0  0
 18 50  1  0  0  0  0
 19 51  1  0  0  0  0
 19 52  1  0  0  0  0
 21 53  1  0  0  0  0
 22 54  1  0  0  0  0
 25 55  1  0  0  0  0
 25 56  1  0  0  0  0
 25 57  1  0  0  0  0
 28 58  1  0  0  0  0
 28 59  1  0  0  0  0
 28 60  1  0  0  0  0
 29 61  1  0  0  0  0
 30 62  1  0  0  0  0
 30 63  1  0  0  0  0
 30 64  1  0  0  0  0
 31 65  1  0  0  0  0
 32 66  1  0  0  0  0
 32 67  1  0  0  0  0
 32 68  1  0  0  0  0
 33 69  1  0  0  0  0
 33 70  1  0  0  0  0
 33 71  1  0  0  0  0
  1 72  1  0  0  0  0
M  CHG  1   1   1
M  END
