 xtb: 6.6.1 (8d0f1dd)
          06052420003D

 25 25  0     0  0            999 V2000
    3.1029    1.4274   -0.0855 C   0  0  0  0  0  0  0  0  0  0  0  0
    2.2656    0.3149   -0.0823 N   0  0  0  0  0  0  0  0  0  0  0  0
    2.2854   -2.5058    0.1069 C   0  0  0  0  0  0  0  0  0  0  0  0
    1.1335   -2.1480   -0.2590 N   0  0  0  0  0  0  0  0  0  0  0  0
    0.3850   -1.0839   -0.0684 C   0  0  0  0  0  0  0  0  0  0  0  0
    0.9902    0.2317   -0.0727 C   0  0  0  0  0  0  0  0  0  0  0  0
    0.0673    1.4141   -0.0552 C   0  0  0  0  0  0  0  0  0  0  0  0
    0.4894    2.5472   -0.0744 O   0  0  0  0  0  0  0  0  0  0  0  0
   -1.2700    1.1194   -0.0038 N   0  0  0  0  0  0  0  0  0  0  0  0
   -2.2209    2.2241    0.0309 C   0  0  0  0  0  0  0  0  0  0  0  0
   -1.8399   -0.1431    0.0247 C   0  0  0  0  0  0  0  0  0  0  0  0
   -3.0257   -0.3074    0.0801 O   0  0  0  0  0  0  0  0  0  0  0  0
   -0.9518   -1.2266   -0.0122 N   0  0  0  0  0  0  0  0  0  0  0  0
   -1.5164   -2.5610    0.0157 C   0  0  0  0  0  0  0  0  0  0  0  0
    3.7672    1.3662    0.7822 H   0  0  0  0  0  0  0  0  0  0  0  0
    3.7390    1.3705   -0.9748 H   0  0  0  0  0  0  0  0  0  0  0  0
    2.5619    2.3836   -0.0727 H   0  0  0  0  0  0  0  0  0  0  0  0
    2.7653   -2.1127    0.9986 H   0  0  0  0  0  0  0  0  0  0  0  0
   -1.6665    3.1584    0.0678 H   0  0  0  0  0  0  0  0  0  0  0  0
   -2.8502    2.1948   -0.8586 H   0  0  0  0  0  0  0  0  0  0  0  0
   -2.8607    2.1254    0.9075 H   0  0  0  0  0  0  0  0  0  0  0  0
   -1.3467   -3.0292    0.9860 H   0  0  0  0  0  0  0  0  0  0  0  0
   -1.0458   -3.1673   -0.7585 H   0  0  0  0  0  0  0  0  0  0  0  0
   -2.5878   -2.4834   -0.1608 H   0  0  0  0  0  0  0  0  0  0  0  0
    2.7901   -3.2912   -0.4304 H   0  0  0  0  0  0  0  0  0  0  0  0
  1  2  1  0  0  0  0
  3  4  2  0  0  0  0
  4  5  4  0  0  0  0
  2  6  2  0  0  0  0
  5  6  1  0  0  0  0
  6  7  1  0  0  0  0
  7  8  2  0  0  0  0
  7  9  1  0  0  0  0
  9 10  1  0  0  0  0
  9 11  1  0  0  0  0
 11 12  2  0  0  0  0
  5 13  4  0  0  0  0
 11 13  1  0  0  0  0
 13 14  1  0  0  0  0
  1 15  1  0  0  0  0
  1 16  1  0  0  0  0
  1 17  1  0  0  0  0
  3 18  1  0  0  0  0
 10 19  1  0  0  0  0
 10 20  1  0  0  0  0
 10 21  1  0  0  0  0
 14 22  1  0  0  0  0
 14 23  1  0  0  0  0
 14 24  1  0  0  0  0
  3 25  1  0  0  0  0
M  CHG  1   1   1
M  END
