 xtb: 6.6.1 (8d0f1dd)
          06052419593D

 25 25  0     0  0            999 V2000
    3.1051    1.0060   -0.2319 C   0  0  0  0  0  0  0  0  0  0  0  0
    2.2280    0.0102   -0.1696 N   0  0  0  0  0  0  0  0  0  0  0  0
    2.4747   -1.3190   -0.1795 C   0  0  0  0  0  0  0  0  0  0  0  0
    1.3052   -2.0107   -0.1151 N   0  0  0  0  0  0  0  0  0  0  0  0
    0.2843   -1.1116   -0.0611 C   0  0  0  0  0  0  0  0  0  0  0  0
    0.8443    0.1536   -0.0900 C   0  0  0  0  0  0  0  0  0  0  0  0
    0.0324    1.3492   -0.0668 C   0  0  0  0  0  0  0  0  0  0  0  0
    0.4440    2.4843   -0.0913 O   0  0  0  0  0  0  0  0  0  0  0  0
   -1.3280    1.0347   -0.0118 N   0  0  0  0  0  0  0  0  0  0  0  0
   -2.2712    2.1434    0.0026 C   0  0  0  0  0  0  0  0  0  0  0  0
   -1.9092   -0.2189    0.0176 C   0  0  0  0  0  0  0  0  0  0  0  0
   -3.0971   -0.3767    0.0584 O   0  0  0  0  0  0  0  0  0  0  0  0
   -1.0377   -1.3318   -0.0032 N   0  0  0  0  0  0  0  0  0  0  0  0
   -1.6025   -2.6663    0.0269 C   0  0  0  0  0  0  0  0  0  0  0  0
    4.9237    2.3903    1.7149 H   0  0  0  0  0  0  0  0  0  0  0  0
    4.1523    0.7868   -0.3226 H   0  0  0  0  0  0  0  0  0  0  0  0
    2.7345    2.0142   -0.2262 H   0  0  0  0  0  0  0  0  0  0  0  0
    3.4458   -1.7662   -0.2357 H   0  0  0  0  0  0  0  0  0  0  0  0
   -1.7043    3.0711    0.0178 H   0  0  0  0  0  0  0  0  0  0  0  0
   -2.9045    2.1024   -0.8841 H   0  0  0  0  0  0  0  0  0  0  0  0
   -2.9107    2.0729    0.8822 H   0  0  0  0  0  0  0  0  0  0  0  0
   -1.2758   -3.1991    0.9204 H   0  0  0  0  0  0  0  0  0  0  0  0
   -1.3177   -3.2216   -0.8672 H   0  0  0  0  0  0  0  0  0  0  0  0
   -2.6867   -2.5622    0.0513 H   0  0  0  0  0  0  0  0  0  0  0  0
    1.2315   -3.0171   -0.1047 H   0  0  0  0  0  0  0  0  0  0  0  0
  1  2  4  0  0  0  0
  2  3  4  0  0  0  0
  3  4  4  0  0  0  0
  4  5  1  0  0  0  0
  2  6  1  0  0  0  0
  5  6  4  0  0  0  0
  6  7  1  0  0  0  0
  7  8  2  0  0  0  0
  7  9  1  0  0  0  0
  9 10  1  0  0  0  0
  9 11  1  0  0  0  0
 11 12  2  0  0  0  0
  5 13  4  0  0  0  0
 11 13  1  0  0  0  0
 13 14  1  0  0  0  0
  1 16  1  0  0  0  0
  1 17  1  0  0  0  0
  3 18  1  0  0  0  0
 10 19  1  0  0  0  0
 10 20  1  0  0  0  0
 10 21  1  0  0  0  0
 14 22  1  0  0  0  0
 14 23  1  0  0  0  0
 14 24  1  0  0  0  0
  4 25  1  0  0  0  0
M  CHG  1   1   1
M  END
