          23
 
C              3.41673528        1.17656717       -0.18446293
N              2.47669428        0.08930125       -0.08165879
C              2.79730324       -1.19979355       -0.08888754
N              1.69994274       -1.94783103        0.03995635
C              0.57817725       -1.09934395        0.12920615
C              1.12716603        0.21252851        0.05858500
C              0.36183869        1.46256375        0.09664278
O              0.85304206        2.57407630       -0.08603446
N             -0.91623626        1.24580353        0.40217548
C             -1.95730889        2.15074147        0.36302675
N             -0.65997011       -1.39995966        0.23190801
C             -1.18784697       -2.70832231        0.32407492
H              4.02113096        1.23800039        0.72131630
H              4.07461333        1.02426721       -1.03906083
H              2.86249340        2.10871122       -0.30487449
H              3.79780733       -1.58105806       -0.18023891
H             -1.74332901        3.04304828       -0.24111864
H             -2.84063247        1.62841721       -0.06940862
H             -2.25213329        2.44155605        1.38010816
H             -0.89059548       -3.19285339        1.26116603
H             -0.86397461       -3.34898383       -0.50458593
H             -2.27387406       -2.63206952        0.30771678
H              1.67106343       -2.95669448        0.04874870
