 xtb: 6.6.1 (8d0f1dd)
          06052419583D

 25 25  0     0  0            999 V2000
    2.7853    1.2699    0.5234 C   0  0  0  0  0  0  0  0  0  0  0  0
    2.2152    0.2166   -0.0019 N   0  0  0  0  0  0  0  0  0  0  0  0
    3.0070   -0.7270   -0.6962 C   0  0  0  0  0  0  0  0  0  0  0  0
    4.2451   -0.7090   -0.5196 N   0  0  0  0  0  0  0  0  0  0  0  0
    0.2291   -1.1905    0.1352 C   0  0  0  0  0  0  0  0  0  0  0  0
    0.8222    0.0354    0.0315 C   0  0  0  0  0  0  0  0  0  0  0  0
   -0.0170    1.2411   -0.0701 C   0  0  0  0  0  0  0  0  0  0  0  0
    0.4363    2.3564   -0.2031 O   0  0  0  0  0  0  0  0  0  0  0  0
   -1.3737    0.9951   -0.0219 N   0  0  0  0  0  0  0  0  0  0  0  0
   -2.2820    2.1308   -0.0687 C   0  0  0  0  0  0  0  0  0  0  0  0
   -1.9762   -0.2407    0.1149 C   0  0  0  0  0  0  0  0  0  0  0  0
   -3.1663   -0.3733    0.1850 O   0  0  0  0  0  0  0  0  0  0  0  0
   -1.1039   -1.3396    0.1660 N   0  0  0  0  0  0  0  0  0  0  0  0
   -1.6963   -2.6546    0.3119 C   0  0  0  0  0  0  0  0  0  0  0  0
    3.8457    1.3961    0.3669 H   0  0  0  0  0  0  0  0  0  0  0  0
    4.8348   -1.3665   -1.0136 H   0  0  0  0  0  0  0  0  0  0  0  0
    2.2236    1.9895    1.0923 H   0  0  0  0  0  0  0  0  0  0  0  0
    2.4238   -1.3886   -1.3429 H   0  0  0  0  0  0  0  0  0  0  0  0
   -1.6992    3.0312   -0.2507 H   0  0  0  0  0  0  0  0  0  0  0  0
   -3.0152    1.9832   -0.8613 H   0  0  0  0  0  0  0  0  0  0  0  0
   -2.8158    2.2128    0.8792 H   0  0  0  0  0  0  0  0  0  0  0  0
   -1.3712   -3.1181    1.2439 H   0  0  0  0  0  0  0  0  0  0  0  0
   -1.4189   -3.2935   -0.5268 H   0  0  0  0  0  0  0  0  0  0  0  0
   -2.7796   -2.5378    0.3305 H   0  0  0  0  0  0  0  0  0  0  0  0
    0.8077   -2.1007    0.2273 H   0  0  0  0  0  0  0  0  0  0  0  0
  1  2  2  0  0  0  0
  2  3  1  0  0  0  0
  3  4  2  0  0  0  0
  2  6  1  0  0  0  0
  5  6  2  0  0  0  0
  6  7  1  0  0  0  0
  7  8  2  0  0  0  0
  7  9  1  0  0  0  0
  9 10  1  0  0  0  0
  9 11  1  0  0  0  0
 11 12  2  0  0  0  0
  5 13  4  0  0  0  0
 11 13  1  0  0  0  0
 13 14  1  0  0  0  0
  1 15  1  0  0  0  0
  4 16  1  0  0  0  0
  1 17  1  0  0  0  0
  3 18  1  0  0  0  0
 10 19  1  0  0  0  0
 10 20  1  0  0  0  0
 10 21  1  0  0  0  0
 14 22  1  0  0  0  0
 14 23  1  0  0  0  0
 14 24  1  0  0  0  0
  5 25  1  0  0  0  0
M  CHG  1   1   1
M  END
