 xtb: 6.6.1 (8d0f1dd)
          06052419583D

 25 26  0     0  0            999 V2000
    2.6810    1.3439    0.3249 C   0  0  0  0  0  0  0  0  0  0  0  0
    1.9546    0.1161    0.1856 N   0  0  0  0  0  0  0  0  0  0  0  0
    2.4520   -1.1270    0.1398 C   0  0  0  0  0  0  0  0  0  0  0  0
    1.4386   -2.0200   -0.0251 N   0  0  0  0  0  0  0  0  0  0  0  0
    0.2694   -1.3212   -0.0873 C   0  0  0  0  0  0  0  0  0  0  0  0
    0.5914    0.0267    0.0451 C   0  0  0  0  0  0  0  0  0  0  0  0
   -0.4391    1.0138    0.0346 C   0  0  0  0  0  0  0  0  0  0  0  0
   -1.7139    0.4785   -0.1429 O   0  0  0  0  0  0  0  0  0  0  0  0
   -0.2314    2.2573    0.1731 N   0  0  0  0  0  0  0  0  0  0  0  0
   -1.2222    3.2702    0.1761 C   0  0  0  0  0  0  0  0  0  0  0  0
   -2.0462   -0.8135   -0.2817 C   0  0  0  0  0  0  0  0  0  0  0  0
   -3.1811   -1.1492   -0.4290 O   0  0  0  0  0  0  0  0  0  0  0  0
   -1.0032   -1.7625   -0.2450 N   0  0  0  0  0  0  0  0  0  0  0  0
   -1.3205   -3.1695   -0.3763 C   0  0  0  0  0  0  0  0  0  0  0  0
    2.2118    1.9571    1.0940 H   0  0  0  0  0  0  0  0  0  0  0  0
    3.7150    1.1363    0.5891 H   0  0  0  0  0  0  0  0  0  0  0  0
    2.6489    1.9052   -0.6106 H   0  0  0  0  0  0  0  0  0  0  0  0
    3.4867   -1.3872    0.2224 H   0  0  0  0  0  0  0  0  0  0  0  0
   -0.7086    4.2270    0.0764 H   0  0  0  0  0  0  0  0  0  0  0  0
   -1.9488    3.1501   -0.6348 H   0  0  0  0  0  0  0  0  0  0  0  0
   -1.7741    3.2625    1.1206 H   0  0  0  0  0  0  0  0  0  0  0  0
   -1.0125   -3.7140    0.5173 H   0  0  0  0  0  0  0  0  0  0  0  0
   -0.8353   -3.5891   -1.2583 H   0  0  0  0  0  0  0  0  0  0  0  0
   -2.4012   -3.2523   -0.4904 H   0  0  0  0  0  0  0  0  0  0  0  0
    1.5493   -3.0210   -0.0865 H   0  0  0  0  0  0  0  0  0  0  0  0
  1  2  1  0  0  0  0
  2  3  4  0  0  0  0
  3  4  4  0  0  0  0
  4  5  1  0  0  0  0
  2  6  1  0  0  0  0
  5  6  4  0  0  0  0
  6  7  1  0  0  0  0
  7  8  1  0  0  0  0
  7  9  2  0  0  0  0
  9 10  1  0  0  0  0
  8 11  1  0  0  0  0
 11 12  2  0  0  0  0
  5 13  1  0  0  0  0
 11 13  1  0  0  0  0
 13 14  1  0  0  0  0
  1 15  1  0  0  0  0
  1 16  1  0  0  0  0
  1 17  1  0  0  0  0
  3 18  1  0  0  0  0
 10 19  1  0  0  0  0
 10 20  1  0  0  0  0
 10 21  1  0  0  0  0
 14 22  1  0  0  0  0
 14 23  1  0  0  0  0
 14 24  1  0  0  0  0
  4 25  1  0  0  0  0
M  CHG  1   1   1
M  END
