 xtb: 6.6.1 (8d0f1dd)
          06052419573D

 25 25  0     0  0            999 V2000
    3.1135    0.9845   -0.2004 C   0  0  0  0  0  0  0  0  0  0  0  0
    2.2252   -0.0077   -0.1521 N   0  0  0  0  0  0  0  0  0  0  0  0
    2.4725   -1.3369   -0.1707 C   0  0  0  0  0  0  0  0  0  0  0  0
    1.3038   -2.0216   -0.1203 N   0  0  0  0  0  0  0  0  0  0  0  0
    0.2817   -1.1182   -0.0669 C   0  0  0  0  0  0  0  0  0  0  0  0
    0.8453    0.1433   -0.0827 C   0  0  0  0  0  0  0  0  0  0  0  0
    0.0387    1.3476   -0.0528 C   0  0  0  0  0  0  0  0  0  0  0  0
    0.4619    2.4769   -0.0656 O   0  0  0  0  0  0  0  0  0  0  0  0
   -1.3197    1.0353   -0.0082 N   0  0  0  0  0  0  0  0  0  0  0  0
   -2.2622    2.1479    0.0070 C   0  0  0  0  0  0  0  0  0  0  0  0
   -1.9087   -0.2139    0.0162 C   0  0  0  0  0  0  0  0  0  0  0  0
   -3.0944   -0.3723    0.0568 O   0  0  0  0  0  0  0  0  0  0  0  0
   -1.0387   -1.3342   -0.0094 N   0  0  0  0  0  0  0  0  0  0  0  0
   -1.6087   -2.6663    0.0193 C   0  0  0  0  0  0  0  0  0  0  0  0
    4.8713    2.5356    1.5823 H   0  0  0  0  0  0  0  0  0  0  0  0
    4.1594    0.7549   -0.2828 H   0  0  0  0  0  0  0  0  0  0  0  0
    2.7457    1.9955   -0.2031 H   0  0  0  0  0  0  0  0  0  0  0  0
    3.4448   -1.7835   -0.2187 H   0  0  0  0  0  0  0  0  0  0  0  0
   -1.6919    3.0728    0.0241 H   0  0  0  0  0  0  0  0  0  0  0  0
   -2.8924    2.1086   -0.8808 H   0  0  0  0  0  0  0  0  0  0  0  0
   -2.9004    2.0775    0.8867 H   0  0  0  0  0  0  0  0  0  0  0  0
   -1.2846   -3.2017    0.9122 H   0  0  0  0  0  0  0  0  0  0  0  0
   -1.3301   -3.2224   -0.8762 H   0  0  0  0  0  0  0  0  0  0  0  0
   -2.6925   -2.5558    0.0457 H   0  0  0  0  0  0  0  0  0  0  0  0
    1.2211   -3.0276   -0.1286 H   0  0  0  0  0  0  0  0  0  0  0  0
  1  2  4  0  0  0  0
  2  3  4  0  0  0  0
  3  4  4  0  0  0  0
  4  5  1  0  0  0  0
  2  6  1  0  0  0  0
  5  6  4  0  0  0  0
  6  7  1  0  0  0  0
  7  8  2  0  0  0  0
  7  9  1  0  0  0  0
  9 10  1  0  0  0  0
  9 11  1  0  0  0  0
 11 12  2  0  0  0  0
  5 13  4  0  0  0  0
 11 13  1  0  0  0  0
 13 14  1  0  0  0  0
  1 16  1  0  0  0  0
  1 17  1  0  0  0  0
  3 18  1  0  0  0  0
 10 19  1  0  0  0  0
 10 20  1  0  0  0  0
 10 21  1  0  0  0  0
 14 22  1  0  0  0  0
 14 23  1  0  0  0  0
 14 24  1  0  0  0  0
  4 25  1  0  0  0  0
M  CHG  1   1   1
M  END
