          20
 
C             -4.68845023        0.04543755        1.73490462
C             -5.21664181        0.05353569        0.44858817
C             -4.94591865       -0.98334195       -0.43382689
O             -5.40027995       -1.07102487       -1.70691436
C             -6.35116852       -0.13288431       -2.15243224
C             -4.12924105       -2.06132643       -0.00677170
O             -3.90975309       -3.02962888       -0.93387306
C             -3.34364020       -4.24979203       -0.51795978
C             -3.61369598       -2.05619372        1.28001297
C             -3.88907288       -1.00336531        2.14705794
H             -5.85231694        0.86948346        0.14916346
H             -7.23385202       -0.11833834       -1.50668028
H             -6.64055492       -0.45779598       -3.14997970
H             -5.92713095        0.87533785       -2.21133239
H             -3.89999971       -4.68630938        0.31623490
H             -3.40855721       -4.91208333       -1.37913055
H             -2.29197300       -4.13389616       -0.23255229
H             -3.01269046       -2.88352932        1.62579978
H             -3.48583330       -1.02292178        3.14676497
H             -4.91932607        0.84982127        2.40465196
