           5
 
C              3.40913372        1.92906647       -0.03057849
N              3.41052559        0.91614416       -0.75783339
H              3.28042078        1.80324765        1.03737833
H              3.53204920        1.03793709       -1.75921608
H              3.54244454        2.95694466       -0.36959483
