 xtb: 6.6.1 (8d0f1dd)
          06052419573D

 25 24  0     0  0            999 V2000
    3.3427    1.1231   -0.0519 C   0  0  0  0  0  0  0  0  0  0  0  0
    2.3790    0.0523   -0.0249 N   0  0  0  0  0  0  0  0  0  0  0  0
    2.6757   -1.2422   -0.0545 C   0  0  0  0  0  0  0  0  0  0  0  0
    1.5598   -1.9717    0.0010 N   0  0  0  0  0  0  0  0  0  0  0  0
    0.4510   -1.1040    0.0621 C   0  0  0  0  0  0  0  0  0  0  0  0
    1.0268    0.1982    0.0554 C   0  0  0  0  0  0  0  0  0  0  0  0
    0.2837    1.4616    0.0938 C   0  0  0  0  0  0  0  0  0  0  0  0
    0.8035    2.5679   -0.0333 O   0  0  0  0  0  0  0  0  0  0  0  0
   -1.0112    1.2617    0.3326 N   0  0  0  0  0  0  0  0  0  0  0  0
   -2.0323    2.1878    0.2710 C   0  0  0  0  0  0  0  0  0  0  0  0
   -4.2309    0.3697   -0.8888 C   0  0  0  0  0  0  0  0  0  0  0  0
   -4.2880   -0.7533   -0.8469 O   0  0  0  0  0  0  0  0  0  0  0  0
   -0.7960   -1.3828    0.0979 N   0  0  0  0  0  0  0  0  0  0  0  0
   -1.3517   -2.6825    0.1272 C   0  0  0  0  0  0  0  0  0  0  0  0
    3.9045    1.1471    0.8826 H   0  0  0  0  0  0  0  0  0  0  0  0
    4.0375    0.9819   -0.8788 H   0  0  0  0  0  0  0  0  0  0  0  0
    2.8121    2.0691   -0.1711 H   0  0  0  0  0  0  0  0  0  0  0  0
    3.6722   -1.6405   -0.1099 H   0  0  0  0  0  0  0  0  0  0  0  0
   -1.7735    3.0924   -0.2963 H   0  0  0  0  0  0  0  0  0  0  0  0
   -2.9036    1.6955   -0.2174 H   0  0  0  0  0  0  0  0  0  0  0  0
   -2.3696    2.4557    1.2811 H   0  0  0  0  0  0  0  0  0  0  0  0
   -1.1083   -3.1990    1.0627 H   0  0  0  0  0  0  0  0  0  0  0  0
   -1.0008   -3.3059   -0.7036 H   0  0  0  0  0  0  0  0  0  0  0  0
   -2.4342   -2.5843    0.0621 H   0  0  0  0  0  0  0  0  0  0  0  0
    1.5119   -2.9796   -0.0209 H   0  0  0  0  0  0  0  0  0  0  0  0
  1  2  1  0  0  0  0
  2  3  4  0  0  0  0
  3  4  4  0  0  0  0
  4  5  1  0  0  0  0
  2  6  4  0  0  0  0
  5  6  4  0  0  0  0
  6  7  1  0  0  0  0
  7  8  2  0  0  0  0
  7  9  4  0  0  0  0
  9 10  1  0  0  0  0
 11 12  3  0  0  0  0
  5 13  2  0  0  0  0
 13 14  1  0  0  0  0
  1 15  1  0  0  0  0
  1 16  1  0  0  0  0
  1 17  1  0  0  0  0
  3 18  1  0  0  0  0
 10 19  1  0  0  0  0
 10 20  1  0  0  0  0
 10 21  1  0  0  0  0
 14 22  1  0  0  0  0
 14 23  1  0  0  0  0
 14 24  1  0  0  0  0
  4 25  1  0  0  0  0
M  CHG  1   1   1
M  END
