 xtb: 6.6.1 (8d0f1dd)
          06052419573D

 25 25  0     0  0            999 V2000
    3.2511    1.2474    0.0121 C   0  0  0  0  0  0  0  0  0  0  0  0
    2.3228    0.1493   -0.0488 N   0  0  0  0  0  0  0  0  0  0  0  0
    2.6171   -1.1376   -0.1035 C   0  0  0  0  0  0  0  0  0  0  0  0
    1.4908   -1.8724   -0.1369 N   0  0  0  0  0  0  0  0  0  0  0  0
    0.4219   -1.0070   -0.0988 C   0  0  0  0  0  0  0  0  0  0  0  0
    0.9557    0.2764   -0.0431 C   0  0  0  0  0  0  0  0  0  0  0  0
    0.1225    1.4605   -0.0202 C   0  0  0  0  0  0  0  0  0  0  0  0
    0.5172    2.6032   -0.0111 O   0  0  0  0  0  0  0  0  0  0  0  0
   -1.2328    1.1177   -0.0166 N   0  0  0  0  0  0  0  0  0  0  0  0
   -2.1944    2.2173    0.0287 C   0  0  0  0  0  0  0  0  0  0  0  0
   -1.8031   -0.1251   -0.0478 C   0  0  0  0  0  0  0  0  0  0  0  0
   -2.9824   -0.3205   -0.0300 O   0  0  0  0  0  0  0  0  0  0  0  0
   -0.9030   -1.2754   -0.1126 N   0  0  0  0  0  0  0  0  0  0  0  0
   -1.4600   -2.4955   -0.1946 C   0  0  0  0  0  0  0  0  0  0  0  0
    3.7321    1.2791    0.9911 H   0  0  0  0  0  0  0  0  0  0  0  0
    4.0184    1.1389   -0.7531 H   0  0  0  0  0  0  0  0  0  0  0  0
    2.7042    2.1780   -0.1395 H   0  0  0  0  0  0  0  0  0  0  0  0
    3.6096   -1.5485   -0.1197 H   0  0  0  0  0  0  0  0  0  0  0  0
   -1.6378    3.1508    0.0337 H   0  0  0  0  0  0  0  0  0  0  0  0
   -2.8481    2.1717   -0.8409 H   0  0  0  0  0  0  0  0  0  0  0  0
   -2.8040    2.1360    0.9274 H   0  0  0  0  0  0  0  0  0  0  0  0
   -2.8103   -4.7211    1.3747 H   0  0  0  0  0  0  0  0  0  0  0  0
   -0.8522   -3.3765   -0.2302 H   0  0  0  0  0  0  0  0  0  0  0  0
   -2.5299   -2.5471   -0.2163 H   0  0  0  0  0  0  0  0  0  0  0  0
    1.4551   -2.8813   -0.1728 H   0  0  0  0  0  0  0  0  0  0  0  0
  1  2  1  0  0  0  0
  2  3  4  0  0  0  0
  3  4  4  0  0  0  0
  4  5  1  0  0  0  0
  2  6  1  0  0  0  0
  5  6  4  0  0  0  0
  6  7  1  0  0  0  0
  7  8  2  0  0  0  0
  7  9  1  0  0  0  0
  9 10  1  0  0  0  0
  9 11  1  0  0  0  0
 11 12  2  0  0  0  0
  5 13  1  0  0  0  0
 11 13  1  0  0  0  0
 13 14  4  0  0  0  0
  1 15  1  0  0  0  0
  1 16  1  0  0  0  0
  1 17  1  0  0  0  0
  3 18  1  0  0  0  0
 10 19  1  0  0  0  0
 10 20  1  0  0  0  0
 10 21  1  0  0  0  0
 14 23  1  0  0  0  0
 14 24  1  0  0  0  0
  4 25  1  0  0  0  0
M  CHG  1   1   1
M  END
