          20
 
C             -4.44425931        0.09866580        1.72557020
C             -5.29716283        0.20806456        0.63437043
C             -5.33975177       -0.78582772       -0.33377892
O             -6.13064792       -0.78175676       -1.43118504
C             -7.09968953        0.23004171       -1.57021387
C             -4.50522541       -1.92614696       -0.19558560
O             -4.61788793       -2.85081203       -1.17865235
C             -3.98156151       -4.09586121       -1.01906103
C             -3.65854234       -2.01895141        0.89873164
C             -3.62667463       -1.00775018        1.85364088
H             -5.93786742        1.07006258        0.55555198
H             -7.77356158        0.26209425       -0.70935511
H             -7.66652199       -0.02660413       -2.46319808
H             -6.63915316        1.21421477       -1.70763136
H             -4.28667412       -4.58581984       -0.08961162
H             -4.30105643       -4.69944547       -1.86641489
H             -2.89038455       -3.99872067       -1.03756201
H             -3.03452603       -2.89056005        1.02528388
H             -2.97146995       -1.09929075        2.70585429
H             -4.42460592        0.87913352        2.46448147
