 xtb: 6.6.1 (8d0f1dd)
          04062411163D

 72 73  0     0  0            999 V2000
   -2.6394    3.0501    2.7866 N   0  0  0  0  0  0  0  0  0  0  0  0
   -2.3490    2.2895    1.8353 C   0  0  0  0  0  0  0  0  0  0  0  0
   -3.2243    2.0832    0.6274 C   0  0  0  0  0  0  0  0  0  0  0  0
   -3.5775    0.6078    0.5135 C   0  0  0  0  0  0  0  0  0  0  0  0
   -4.1569    0.1169   -0.6591 C   0  0  0  0  0  0  0  0  0  0  0  0
   -4.4854   -1.2202   -0.7979 C   0  0  0  0  0  0  0  0  0  0  0  0
   -5.0376   -1.7773   -1.9035 O   0  0  0  0  0  0  0  0  0  0  0  0
   -5.5013   -0.9369   -2.9331 C   0  0  0  0  0  0  0  0  0  0  0  0
   -4.2328   -2.1174    0.2707 C   0  0  0  0  0  0  0  0  0  0  0  0
   -4.5682   -3.4088    0.0439 O   0  0  0  0  0  0  0  0  0  0  0  0
   -4.4937   -4.3243    1.1116 C   0  0  0  0  0  0  0  0  0  0  0  0
   -3.6812   -1.6206    1.4393 C   0  0  0  0  0  0  0  0  0  0  0  0
   -3.3616   -0.2737    1.5584 C   0  0  0  0  0  0  0  0  0  0  0  0
   -2.3453    2.5034   -0.6039 C   0  0  0  0  0  0  0  0  0  0  0  0
   -1.4543    1.3969   -1.0478 C   0  0  0  0  0  0  0  0  0  0  0  0
   -0.2429    1.1548   -0.5356 C   0  0  0  0  0  0  0  0  0  0  0  0
    0.5229   -0.0336   -0.9169 N   0  0  0  0  0  0  0  0  0  0  0  0
    1.9852    0.2326   -0.8444 C   0  0  0  0  0  0  0  0  0  0  0  0
    2.8463   -0.7739   -1.6073 C   0  0  0  0  0  0  0  0  0  0  0  0
    4.2887   -0.5022   -1.2503 C   0  0  0  0  0  0  0  0  0  0  0  0
    4.9470    0.5992   -1.7650 C   0  0  0  0  0  0  0  0  0  0  0  0
    6.2413    0.8980   -1.3638 C   0  0  0  0  0  0  0  0  0  0  0  0
    6.8996    0.0972   -0.4435 C   0  0  0  0  0  0  0  0  0  0  0  0
    8.1444    0.3039    0.0301 O   0  0  0  0  0  0  0  0  0  0  0  0
    8.8662    1.4301   -0.4126 C   0  0  0  0  0  0  0  0  0  0  0  0
    6.2393   -1.0509    0.0685 C   0  0  0  0  0  0  0  0  0  0  0  0
    6.9581   -1.7905    0.9402 O   0  0  0  0  0  0  0  0  0  0  0  0
    6.4141   -2.9927    1.4292 C   0  0  0  0  0  0  0  0  0  0  0  0
    4.9427   -1.3231   -0.3340 C   0  0  0  0  0  0  0  0  0  0  0  0
    0.1165   -1.1906   -0.0880 C   0  0  0  0  0  0  0  0  0  0  0  0
   -4.5328    2.9169    0.6507 C   0  0  0  0  0  0  0  0  0  0  0  0
   -5.4294    2.5006    1.8149 C   0  0  0  0  0  0  0  0  0  0  0  0
   -4.2834    4.4218    0.7009 C   0  0  0  0  0  0  0  0  0  0  0  0
   -4.3703    0.7984   -1.4665 H   0  0  0  0  0  0  0  0  0  0  0  0
   -6.2151   -0.1977   -2.5581 H   0  0  0  0  0  0  0  0  0  0  0  0
   -6.0020   -1.5931   -3.6423 H   0  0  0  0  0  0  0  0  0  0  0  0
   -4.6768   -0.4239   -3.4409 H   0  0  0  0  0  0  0  0  0  0  0  0
   -5.1135   -4.0067    1.9552 H   0  0  0  0  0  0  0  0  0  0  0  0
   -4.8746   -5.2644    0.7178 H   0  0  0  0  0  0  0  0  0  0  0  0
   -3.4620   -4.4662    1.4507 H   0  0  0  0  0  0  0  0  0  0  0  0
   -3.5088   -2.2719    2.2805 H   0  0  0  0  0  0  0  0  0  0  0  0
   -2.9645    0.0805    2.4965 H   0  0  0  0  0  0  0  0  0  0  0  0
   -3.0056    2.7863   -1.4221 H   0  0  0  0  0  0  0  0  0  0  0  0
   -1.7562    3.3750   -0.3185 H   0  0  0  0  0  0  0  0  0  0  0  0
    0.2840   -0.2569   -1.8831 H   0  0  0  0  0  0  0  0  0  0  0  0
   -1.8503    0.7243   -1.7960 H   0  0  0  0  0  0  0  0  0  0  0  0
   -1.4098    1.7162    1.7768 H   0  0  0  0  0  0  0  0  0  0  0  0
    0.2275    1.7632    0.2176 H   0  0  0  0  0  0  0  0  0  0  0  0
    2.2778    0.2407    0.2086 H   0  0  0  0  0  0  0  0  0  0  0  0
    2.1631    1.2291   -1.2540 H   0  0  0  0  0  0  0  0  0  0  0  0
    2.6941   -0.6583   -2.6822 H   0  0  0  0  0  0  0  0  0  0  0  0
    2.5964   -1.7974   -1.3281 H   0  0  0  0  0  0  0  0  0  0  0  0
    4.4621    1.2349   -2.4902 H   0  0  0  0  0  0  0  0  0  0  0  0
    6.7297    1.7636   -1.7797 H   0  0  0  0  0  0  0  0  0  0  0  0
    8.3507    2.3615   -0.1583 H   0  0  0  0  0  0  0  0  0  0  0  0
    9.0456    1.3935   -1.4912 H   0  0  0  0  0  0  0  0  0  0  0  0
    9.8184    1.3904    0.1126 H   0  0  0  0  0  0  0  0  0  0  0  0
    7.1900   -3.4325    2.0526 H   0  0  0  0  0  0  0  0  0  0  0  0
    5.5220   -2.8138    2.0389 H   0  0  0  0  0  0  0  0  0  0  0  0
    6.1699   -3.6828    0.6154 H   0  0  0  0  0  0  0  0  0  0  0  0
    4.4291   -2.1877    0.0569 H   0  0  0  0  0  0  0  0  0  0  0  0
   -0.9624   -1.3266   -0.1556 H   0  0  0  0  0  0  0  0  0  0  0  0
    0.3759   -1.0024    0.9528 H   0  0  0  0  0  0  0  0  0  0  0  0
    0.6146   -2.0976   -0.4226 H   0  0  0  0  0  0  0  0  0  0  0  0
   -5.0648    2.6887   -0.2808 H   0  0  0  0  0  0  0  0  0  0  0  0
   -4.9491    2.7419    2.7574 H   0  0  0  0  0  0  0  0  0  0  0  0
   -5.6387    1.4339    1.7864 H   0  0  0  0  0  0  0  0  0  0  0  0
   -6.3727    3.0370    1.7582 H   0  0  0  0  0  0  0  0  0  0  0  0
   -3.7515    4.6807    1.6105 H   0  0  0  0  0  0  0  0  0  0  0  0
   -3.7140    4.7688   -0.1575 H   0  0  0  0  0  0  0  0  0  0  0  0
   -5.2377    4.9418    0.7019 H   0  0  0  0  0  0  0  0  0  0  0  0
   -1.9590    3.1269    3.5374 H   0  0  0  0  0  0  0  0  0  0  0  0
  1  2  2  0  0  0  0
  2  3  1  0  0  0  0
  3  4  1  0  0  0  0
  4  5  4  0  0  0  0
  5  6  4  0  0  0  0
  6  7  1  0  0  0  0
  7  8  1  0  0  0  0
  6  9  4  0  0  0  0
  9 10  1  0  0  0  0
 10 11  1  0  0  0  0
  9 12  4  0  0  0  0
  4 13  4  0  0  0  0
 12 13  4  0  0  0  0
  3 14  1  0  0  0  0
 14 15  1  0  0  0  0
 15 16  2  0  0  0  0
 16 17  1  0  0  0  0
 17 18  1  0  0  0  0
 18 19  1  0  0  0  0
 19 20  1  0  0  0  0
 20 21  4  0  0  0  0
 21 22  4  0  0  0  0
 22 23  4  0  0  0  0
 23 24  1  0  0  0  0
 24 25  1  0  0  0  0
 23 26  4  0  0  0  0
 26 27  1  0  0  0  0
 27 28  1  0  0  0  0
 20 29  4  0  0  0  0
 26 29  4  0  0  0  0
 17 30  1  0  0  0  0
  3 31  1  0  0  0  0
 31 32  1  0  0  0  0
 31 33  1  0  0  0  0
  5 34  1  0  0  0  0
  8 35  1  0  0  0  0
  8 36  1  0  0  0  0
  8 37  1  0  0  0  0
 11 38  1  0  0  0  0
 11 39  1  0  0  0  0
 11 40  1  0  0  0  0
 12 41  1  0  0  0  0
 13 42  1  0  0  0  0
 14 43  1  0  0  0  0
 14 44  1  0  0  0  0
 17 45  1  0  0  0  0
 15 46  1  0  0  0  0
  2 47  1  0  0  0  0
 16 48  1  0  0  0  0
 18 49  1  0  0  0  0
 18 50  1  0  0  0  0
 19 51  1  0  0  0  0
 19 52  1  0  0  0  0
 21 53  1  0  0  0  0
 22 54  1  0  0  0  0
 25 55  1  0  0  0  0
 25 56  1  0  0  0  0
 25 57  1  0  0  0  0
 28 58  1  0  0  0  0
 28 59  1  0  0  0  0
 28 60  1  0  0  0  0
 29 61  1  0  0  0  0
 30 62  1  0  0  0  0
 30 63  1  0  0  0  0
 30 64  1  0  0  0  0
 31 65  1  0  0  0  0
 32 66  1  0  0  0  0
 32 67  1  0  0  0  0
 32 68  1  0  0  0  0
 33 69  1  0  0  0  0
 33 70  1  0  0  0  0
 33 71  1  0  0  0  0
  1 72  1  0  0  0  0
M  CHG  1   1   1
M  END
