 xtb: 6.6.1 (8d0f1dd)
          06052420003D

 25 25  0     0  0            999 V2000
    3.4204    0.8834    0.2810 C   0  0  0  0  0  0  0  0  0  0  0  0
    2.0812    1.2518    0.3478 N   0  0  0  0  0  0  0  0  0  0  0  0
    1.9758   -2.5829   -0.4639 C   0  0  0  0  0  0  0  0  0  0  0  0
    1.6663   -1.6004    0.2963 N   0  0  0  0  0  0  0  0  0  0  0  0
    0.6038   -0.6722    0.1649 C   0  0  0  0  0  0  0  0  0  0  0  0
    0.9262    0.7102    0.2663 C   0  0  0  0  0  0  0  0  0  0  0  0
   -0.2227    1.6887    0.2512 C   0  0  0  0  0  0  0  0  0  0  0  0
   -0.0717    2.8567    0.4736 O   0  0  0  0  0  0  0  0  0  0  0  0
   -1.4492    1.1398   -0.0691 N   0  0  0  0  0  0  0  0  0  0  0  0
   -2.5872    2.0420   -0.1972 C   0  0  0  0  0  0  0  0  0  0  0  0
   -1.7307   -0.1933   -0.2453 C   0  0  0  0  0  0  0  0  0  0  0  0
   -2.8247   -0.6044   -0.5121 O   0  0  0  0  0  0  0  0  0  0  0  0
   -0.6547   -1.0960   -0.0596 N   0  0  0  0  0  0  0  0  0  0  0  0
   -1.0232   -2.4983   -0.0885 C   0  0  0  0  0  0  0  0  0  0  0  0
    3.8289    0.8037    1.2954 H   0  0  0  0  0  0  0  0  0  0  0  0
    3.6262   -0.0391   -0.2777 H   0  0  0  0  0  0  0  0  0  0  0  0
    3.9546    1.7141   -0.1943 H   0  0  0  0  0  0  0  0  0  0  0  0
    1.3710   -2.8232   -1.3309 H   0  0  0  0  0  0  0  0  0  0  0  0
   -2.2156    3.0640   -0.2065 H   0  0  0  0  0  0  0  0  0  0  0  0
   -3.1242    1.8171   -1.1181 H   0  0  0  0  0  0  0  0  0  0  0  0
   -3.2696    1.9045    0.6424 H   0  0  0  0  0  0  0  0  0  0  0  0
   -0.3911   -3.0809    0.5784 H   0  0  0  0  0  0  0  0  0  0  0  0
   -0.9606   -2.8944   -1.1041 H   0  0  0  0  0  0  0  0  0  0  0  0
   -2.0646   -2.5792    0.2253 H   0  0  0  0  0  0  0  0  0  0  0  0
    2.2956   -1.3935    1.0759 H   0  0  0  0  0  0  0  0  0  0  0  0
  1  2  1  0  0  0  0
  3  4  2  0  0  0  0
  4  5  1  0  0  0  0
  2  6  2  0  0  0  0
  5  6  1  0  0  0  0
  6  7  1  0  0  0  0
  7  8  2  0  0  0  0
  7  9  1  0  0  0  0
  9 10  1  0  0  0  0
  9 11  1  0  0  0  0
 11 12  2  0  0  0  0
  5 13  4  0  0  0  0
 11 13  1  0  0  0  0
 13 14  1  0  0  0  0
  1 15  1  0  0  0  0
  1 16  1  0  0  0  0
  1 17  1  0  0  0  0
  3 18  1  0  0  0  0
 10 19  1  0  0  0  0
 10 20  1  0  0  0  0
 10 21  1  0  0  0  0
 14 22  1  0  0  0  0
 14 23  1  0  0  0  0
 14 24  1  0  0  0  0
  4 25  1  0  0  0  0
M  CHG  1   1   1
M  END
