          19
 
C              4.79976125       -0.94875982       -0.54364568
C              5.22243131        0.28616384       -0.93444430
C              6.54399968        0.62815131       -0.63568244
C              7.37804028       -0.27141972        0.01371240
O              8.66529319       -0.04406406        0.34624508
C              9.24917118        1.19868823        0.03158624
C              6.89119156       -1.55981031        0.37938749
O              7.77902516       -2.36517194        0.98728299
C              7.40543276       -3.67787391        1.33317146
C              5.56380968       -1.88401029        0.09264988
H              4.58577445        0.97982735       -1.46120482
H              6.90321252        1.60222716       -0.92711089
H              8.73328180        2.02165856        0.53559222
H              9.25641365        1.37616950       -1.04810285
H             10.27348539        1.13881398        0.39415354
H              8.29519726       -4.12772250        1.76888337
H              6.59752891       -3.68424056        2.07165875
H              7.10189809       -4.25276041        0.45254130
H              5.16298404       -2.84769456        0.36569269
