 xtb: 6.6.1 (8d0f1dd)
          06052419593D

 25 26  0     0  0            999 V2000
    2.9231    1.1614   -0.1170 C   0  0  0  0  0  0  0  0  0  0  0  0
    2.0343    0.0347   -0.1268 N   0  0  0  0  0  0  0  0  0  0  0  0
    2.3550   -1.2307   -0.3800 C   0  0  0  0  0  0  0  0  0  0  0  0
    1.2663   -1.9976   -0.3012 N   0  0  0  0  0  0  0  0  0  0  0  0
    0.1707   -1.2286    0.0558 C   0  0  0  0  0  0  0  0  0  0  0  0
    0.6554    0.1154    0.1450 C   0  0  0  0  0  0  0  0  0  0  0  0
    0.0641    1.3034    0.4082 C   0  0  0  0  0  0  0  0  0  0  0  0
    0.4699    2.5709    0.6306 O   0  0  0  0  0  0  0  0  0  0  0  0
   -0.8857    2.1034    0.9732 N   0  0  0  0  0  0  0  0  0  0  0  0
   -1.9529    2.6822    0.1998 C   0  0  0  0  0  0  0  0  0  0  0  0
   -1.9023   -1.1393   -0.9791 C   0  0  0  0  0  0  0  0  0  0  0  0
   -2.0280   -0.1194   -1.5564 O   0  0  0  0  0  0  0  0  0  0  0  0
   -1.1331   -1.7103   -0.0803 N   0  0  0  0  0  0  0  0  0  0  0  0
   -1.4813   -3.0041    0.4959 C   0  0  0  0  0  0  0  0  0  0  0  0
    2.9238    1.6306    0.8681 H   0  0  0  0  0  0  0  0  0  0  0  0
    3.9293    0.8326   -0.3631 H   0  0  0  0  0  0  0  0  0  0  0  0
    2.5973    1.9084   -0.8427 H   0  0  0  0  0  0  0  0  0  0  0  0
    3.3444   -1.5819   -0.5969 H   0  0  0  0  0  0  0  0  0  0  0  0
   -2.2232    3.6254    0.6682 H   0  0  0  0  0  0  0  0  0  0  0  0
   -1.6899    2.8463   -0.8474 H   0  0  0  0  0  0  0  0  0  0  0  0
   -2.7944    1.9954    0.2594 H   0  0  0  0  0  0  0  0  0  0  0  0
   -0.9806   -3.1084    1.4569 H   0  0  0  0  0  0  0  0  0  0  0  0
   -1.1951   -3.8293   -0.1597 H   0  0  0  0  0  0  0  0  0  0  0  0
   -2.5577   -3.0443    0.6506 H   0  0  0  0  0  0  0  0  0  0  0  0
    1.2510   -2.9981   -0.4300 H   0  0  0  0  0  0  0  0  0  0  0  0
  1  2  1  0  0  0  0
  2  3  4  0  0  0  0
  3  4  4  0  0  0  0
  4  5  1  0  0  0  0
  2  6  1  0  0  0  0
  5  6  1  0  0  0  0
  6  7  4  0  0  0  0
  7  8  1  0  0  0  0
  7  9  1  0  0  0  0
  8  9  1  0  0  0  0
  9 10  1  0  0  0  0
 11 12  2  0  0  0  0
  5 13  1  0  0  0  0
 11 13  4  0  0  0  0
 13 14  1  0  0  0  0
  1 15  1  0  0  0  0
  1 16  1  0  0  0  0
  1 17  1  0  0  0  0
  3 18  1  0  0  0  0
 10 19  1  0  0  0  0
 10 20  1  0  0  0  0
 10 21  1  0  0  0  0
 14 22  1  0  0  0  0
 14 23  1  0  0  0  0
 14 24  1  0  0  0  0
  4 25  1  0  0  0  0
M  CHG  1   1   1
M  END
