 xtb: 6.6.1 (8d0f1dd)
          04062411133D

 72 72  0     0  0            999 V2000
   -2.3029    3.0749    2.4189 N   0  0  0  0  0  0  0  0  0  0  0  0
   -2.1039    2.3262    1.4392 C   0  0  0  0  0  0  0  0  0  0  0  0
   -3.1236    2.0389    0.3710 C   0  0  0  0  0  0  0  0  0  0  0  0
   -3.5149    0.5699    0.4196 C   0  0  0  0  0  0  0  0  0  0  0  0
   -4.3351    0.0424   -0.5795 C   0  0  0  0  0  0  0  0  0  0  0  0
   -4.7517   -1.2780   -0.5547 C   0  0  0  0  0  0  0  0  0  0  0  0
   -5.5634   -1.8547   -1.4641 O   0  0  0  0  0  0  0  0  0  0  0  0
   -6.1587   -1.0556   -2.4598 C   0  0  0  0  0  0  0  0  0  0  0  0
   -4.3173   -2.1292    0.4982 C   0  0  0  0  0  0  0  0  0  0  0  0
   -4.7649   -3.3983    0.4380 O   0  0  0  0  0  0  0  0  0  0  0  0
   -4.4602   -4.2864    1.4881 C   0  0  0  0  0  0  0  0  0  0  0  0
   -3.4975   -1.6013    1.4835 C   0  0  0  0  0  0  0  0  0  0  0  0
   -3.1085   -0.2684    1.4473 C   0  0  0  0  0  0  0  0  0  0  0  0
   -2.4357    2.3614   -0.9829 C   0  0  0  0  0  0  0  0  0  0  0  0
   -1.3934    1.3280   -1.4446 C   0  0  0  0  0  0  0  0  0  0  0  0
   -0.1134    1.4213   -0.6968 C   0  0  0  0  0  0  0  0  0  0  0  0
    0.6314    0.3981   -0.2911 N   0  0  0  0  0  0  0  0  0  0  0  0
    1.8158    0.5470    0.2860 C   0  0  0  0  0  0  0  0  0  0  0  0
    3.4834   -1.2601   -2.3977 C   0  0  0  0  0  0  0  0  0  0  0  0
    4.5343   -0.8162   -1.6292 C   0  0  0  0  0  0  0  0  0  0  0  0
    4.9688    0.5373   -1.6868 C   0  0  0  0  0  0  0  0  0  0  0  0
    6.0499    0.9712   -0.9644 C   0  0  0  0  0  0  0  0  0  0  0  0
    6.7556    0.0970   -0.1311 C   0  0  0  0  0  0  0  0  0  0  0  0
    7.8327    0.4141    0.5975 O   0  0  0  0  0  0  0  0  0  0  0  0
    8.3648    1.7189    0.5309 C   0  0  0  0  0  0  0  0  0  0  0  0
    6.3235   -1.2655   -0.0281 C   0  0  0  0  0  0  0  0  0  0  0  0
    7.0623   -2.0213    0.8112 O   0  0  0  0  0  0  0  0  0  0  0  0
    6.7691   -3.3925    0.9361 C   0  0  0  0  0  0  0  0  0  0  0  0
    5.2451   -1.6952   -0.7595 C   0  0  0  0  0  0  0  0  0  0  0  0
    0.1240   -0.9544   -0.4551 C   0  0  0  0  0  0  0  0  0  0  0  0
   -4.4193    2.8914    0.5167 C   0  0  0  0  0  0  0  0  0  0  0  0
   -5.1733    2.5543    1.8006 C   0  0  0  0  0  0  0  0  0  0  0  0
   -4.1623    4.3942    0.4484 C   0  0  0  0  0  0  0  0  0  0  0  0
   -4.6646    0.6809   -1.3820 H   0  0  0  0  0  0  0  0  0  0  0  0
   -6.7409   -0.2394   -2.0214 H   0  0  0  0  0  0  0  0  0  0  0  0
   -6.8246   -1.7193   -3.0077 H   0  0  0  0  0  0  0  0  0  0  0  0
   -5.4124   -0.6460   -3.1482 H   0  0  0  0  0  0  0  0  0  0  0  0
   -4.8300   -3.9137    2.4479 H   0  0  0  0  0  0  0  0  0  0  0  0
   -4.9700   -5.2157    1.2409 H   0  0  0  0  0  0  0  0  0  0  0  0
   -3.3836   -4.4720    1.5581 H   0  0  0  0  0  0  0  0  0  0  0  0
   -3.1665   -2.2187    2.3030 H   0  0  0  0  0  0  0  0  0  0  0  0
   -2.5015    0.1124    2.2540 H   0  0  0  0  0  0  0  0  0  0  0  0
   -3.2056    2.4336   -1.7507 H   0  0  0  0  0  0  0  0  0  0  0  0
   -1.9549    3.3372   -0.9071 H   0  0  0  0  0  0  0  0  0  0  0  0
   -1.8267    0.3307   -1.3905 H   0  0  0  0  0  0  0  0  0  0  0  0
   -1.1882    1.5405   -2.5023 H   0  0  0  0  0  0  0  0  0  0  0  0
   -1.1401    1.8268    1.2360 H   0  0  0  0  0  0  0  0  0  0  0  0
    0.3267    2.4009   -0.5897 H   0  0  0  0  0  0  0  0  0  0  0  0
    2.3738   -0.3079    0.6051 H   0  0  0  0  0  0  0  0  0  0  0  0
    2.2303    1.5274    0.4126 H   0  0  0  0  0  0  0  0  0  0  0  0
    2.9659   -0.5912   -3.0610 H   0  0  0  0  0  0  0  0  0  0  0  0
    3.1795   -2.2916   -2.3965 H   0  0  0  0  0  0  0  0  0  0  0  0
    4.4422    1.2221   -2.3328 H   0  0  0  0  0  0  0  0  0  0  0  0
    6.3652    1.9988   -1.0500 H   0  0  0  0  0  0  0  0  0  0  0  0
    7.6366    2.4640    0.8646 H   0  0  0  0  0  0  0  0  0  0  0  0
    8.6998    1.9611   -0.4824 H   0  0  0  0  0  0  0  0  0  0  0  0
    9.2190    1.7218    1.2056 H   0  0  0  0  0  0  0  0  0  0  0  0
    7.4919   -3.7824    1.6496 H   0  0  0  0  0  0  0  0  0  0  0  0
    5.7581   -3.5553    1.3207 H   0  0  0  0  0  0  0  0  0  0  0  0
    6.8841   -3.9133   -0.0187 H   0  0  0  0  0  0  0  0  0  0  0  0
    4.9185   -2.7217   -0.7068 H   0  0  0  0  0  0  0  0  0  0  0  0
   -0.0035   -1.1812   -1.5129 H   0  0  0  0  0  0  0  0  0  0  0  0
   -0.8364   -1.0619    0.0522 H   0  0  0  0  0  0  0  0  0  0  0  0
    0.8299   -1.6619   -0.0282 H   0  0  0  0  0  0  0  0  0  0  0  0
   -5.0629    2.6231   -0.3289 H   0  0  0  0  0  0  0  0  0  0  0  0
   -4.5835    2.8418    2.6650 H   0  0  0  0  0  0  0  0  0  0  0  0
   -5.3933    1.4910    1.8607 H   0  0  0  0  0  0  0  0  0  0  0  0
   -6.1126    3.1004    1.8251 H   0  0  0  0  0  0  0  0  0  0  0  0
   -3.5007    4.7009    1.2526 H   0  0  0  0  0  0  0  0  0  0  0  0
   -3.7305    4.6892   -0.5040 H   0  0  0  0  0  0  0  0  0  0  0  0
   -5.1054    4.9220    0.5640 H   0  0  0  0  0  0  0  0  0  0  0  0
   -1.5374    3.2214    3.0696 H   0  0  0  0  0  0  0  0  0  0  0  0
  1  2  2  0  0  0  0
  2  3  1  0  0  0  0
  3  4  1  0  0  0  0
  4  5  4  0  0  0  0
  5  6  4  0  0  0  0
  6  7  1  0  0  0  0
  7  8  1  0  0  0  0
  6  9  4  0  0  0  0
  9 10  1  0  0  0  0
 10 11  1  0  0  0  0
  9 12  4  0  0  0  0
  4 13  4  0  0  0  0
 12 13  4  0  0  0  0
  3 14  1  0  0  0  0
 14 15  1  0  0  0  0
 15 16  1  0  0  0  0
 16 17  4  0  0  0  0
 17 18  4  0  0  0  0
 19 20  4  0  0  0  0
 20 21  4  0  0  0  0
 21 22  2  0  0  0  0
 22 23  4  0  0  0  0
 23 24  1  0  0  0  0
 24 25  1  0  0  0  0
 23 26  1  0  0  0  0
 26 27  1  0  0  0  0
 27 28  1  0  0  0  0
 20 29  4  0  0  0  0
 26 29  4  0  0  0  0
 17 30  1  0  0  0  0
  3 31  1  0  0  0  0
 31 32  1  0  0  0  0
 31 33  1  0  0  0  0
  5 34  1  0  0  0  0
  8 35  1  0  0  0  0
  8 36  1  0  0  0  0
  8 37  1  0  0  0  0
 11 38  1  0  0  0  0
 11 39  1  0  0  0  0
 11 40  1  0  0  0  0
 12 41  1  0  0  0  0
 13 42  1  0  0  0  0
 14 43  1  0  0  0  0
 14 44  1  0  0  0  0
 15 45  1  0  0  0  0
 15 46  1  0  0  0  0
  2 47  1  0  0  0  0
 16 48  1  0  0  0  0
 18 49  1  0  0  0  0
 18 50  1  0  0  0  0
 19 51  1  0  0  0  0
 19 52  1  0  0  0  0
 21 53  1  0  0  0  0
 22 54  1  0  0  0  0
 25 55  1  0  0  0  0
 25 56  1  0  0  0  0
 25 57  1  0  0  0  0
 28 58  1  0  0  0  0
 28 59  1  0  0  0  0
 28 60  1  0  0  0  0
 29 61  1  0  0  0  0
 30 62  1  0  0  0  0
 30 63  1  0  0  0  0
 30 64  1  0  0  0  0
 31 65  1  0  0  0  0
 32 66  1  0  0  0  0
 32 67  1  0  0  0  0
 32 68  1  0  0  0  0
 33 69  1  0  0  0  0
 33 70  1  0  0  0  0
 33 71  1  0  0  0  0
  1 72  1  0  0  0  0
M  CHG  1   1   1
M  END
