          71
 
N             -1.74018223        2.74999983        2.45825014
C             -1.74423071        2.12470931        1.37752636
C             -2.92071968        2.02729550        0.44663987
C             -3.43165504        0.59434413        0.42204996
C             -4.39904023        0.22024500       -0.51296313
C             -4.91671110       -1.06367994       -0.54544031
O             -5.86108458       -1.50155073       -1.40377297
C             -6.47011871       -0.58658591       -2.28403065
C             -4.44649727       -2.03171109        0.38276717
O             -5.00307020       -3.25497807        0.27706577
C             -4.66013953       -4.24745947        1.21595258
C             -3.48355046       -1.65519794        1.30512555
C             -2.98626189       -0.35791850        1.32543558
C             -2.38854922        2.42500699       -0.95506884
C             -1.49762342        1.36216160       -1.62284098
C             -0.15227753        1.25001355       -1.01636759
N              0.48233156        0.10987395       -0.75868145
C              1.86970888        0.11602326       -0.36033913
C              2.80668744       -0.24647498       -1.52967689
C              4.23650163       -0.20016528       -1.06854050
C              4.97705294        0.96990470       -1.17166271
C              6.27910096        1.04382455       -0.70046181
C              6.87574988       -0.05807543       -0.10230105
O              8.12322370       -0.11773264        0.38564381
C              8.95001095        1.02288196        0.32417549
C              6.12391093       -1.26018004        0.00193559
O              6.76272707       -2.28432247        0.62440001
C              6.38396841       -3.53025922        0.59851564
C              4.82011392       -1.31506341       -0.48185337
C             -0.15888691       -1.17346124       -0.91727008
C             -4.10232896        2.95925931        0.84907548
C             -4.71488553        2.53980611        2.18331359
C             -3.71366483        4.43421952        0.90113280
H             -4.76498850        0.95054027       -1.21528867
H             -6.94593029        0.23569346       -1.74119848
H             -7.23118910       -1.15513092       -2.81480467
H             -5.75295306       -0.18345313       -3.00655364
H             -4.89602531       -3.93207826        2.23662190
H             -5.26446102       -5.11476139        0.95759072
H             -3.60009310       -4.51311419        1.15104656
H             -3.12022549       -2.36335342        2.03209818
H             -2.26306657       -0.09475819        2.08185085
H             -3.23796777        2.61317949       -1.61069386
H             -1.82769509        3.35621523       -0.86744703
H             -2.01610788        0.40499671       -1.63146447
H             -1.36073182        1.67710095       -2.66584528
H             -0.85700825        1.60649383        0.96229665
H              0.42526564        2.15676857       -0.91319422
H              2.01216640       -0.59995580        0.45406039
H              2.13548168        1.10868907        0.00923670
H              2.65276687        0.46861690       -2.33917038
H              2.56134133       -1.24300047       -1.89870758
H              4.53923911        1.84151879       -1.63245233
H              6.82465271        1.96666349       -0.80615480
H              8.51659944        1.86193371        0.87564430
H              9.14113905        1.32175197       -0.71035664
H              9.88661317        0.72715455        0.79304733
H              6.95696205       -4.22129101        1.21894737
H              5.58541533       -3.88918345       -0.03364281
H              4.24750513       -2.22425052       -0.38192127
H             -0.37417201       -1.38101861       -1.96756013
H             -1.09550347       -1.20443239       -0.35469021
H              0.49766525       -1.95187988       -0.53764900
H             -4.86895794        2.83945310        0.07506399
H             -3.98852144        2.66013983        2.98051180
H             -5.04286394        1.50346475        2.15723917
H             -5.57599678        3.16592432        2.40144537
H             -2.93207986        4.59289628        1.63762604
H             -3.37720912        4.80049800       -0.06517436
H             -4.58042734        5.02032612        1.19503055
H             -0.87771935        2.77055718        2.99329194
