 xtb: 6.6.1 (8d0f1dd)
          06052419593D

 25 26  0     0  0            999 V2000
    3.2049    1.1345    0.0584 C   0  0  0  0  0  0  0  0  0  0  0  0
    2.2748    0.0536   -0.0744 N   0  0  0  0  0  0  0  0  0  0  0  0
    2.5449   -1.2415   -0.1396 C   0  0  0  0  0  0  0  0  0  0  0  0
    1.3929   -1.9521   -0.1397 N   0  0  0  0  0  0  0  0  0  0  0  0
    0.3547   -1.0696   -0.0659 C   0  0  0  0  0  0  0  0  0  0  0  0
    0.9089    0.1986   -0.0298 C   0  0  0  0  0  0  0  0  0  0  0  0
    0.0824    1.3943   -0.0155 C   0  0  0  0  0  0  0  0  0  0  0  0
    0.4911    2.5291   -0.0420 O   0  0  0  0  0  0  0  0  0  0  0  0
   -1.2704    1.0643    0.0200 N   0  0  0  0  0  0  0  0  0  0  0  0
   -2.2265    2.1650    0.0466 C   0  0  0  0  0  0  0  0  0  0  0  0
   -1.8442   -0.1943    0.0493 C   0  0  0  0  0  0  0  0  0  0  0  0
   -3.0280   -0.3626    0.1182 O   0  0  0  0  0  0  0  0  0  0  0  0
   -0.9655   -1.3022   -0.0147 N   0  0  0  0  0  0  0  0  0  0  0  0
   -1.5191   -2.6414    0.0348 C   0  0  0  0  0  0  0  0  0  0  0  0
    3.3148    1.4052    1.1111 H   0  0  0  0  0  0  0  0  0  0  0  0
    4.1797    0.8568   -0.3385 H   0  0  0  0  0  0  0  0  0  0  0  0
    2.8255    2.0180   -0.4618 H   0  0  0  0  0  0  0  0  0  0  0  0
    3.5254   -1.6720   -0.1967 H   0  0  0  0  0  0  0  0  0  0  0  0
   -1.6685    3.0979    0.0383 H   0  0  0  0  0  0  0  0  0  0  0  0
   -2.8796    2.1074   -0.8235 H   0  0  0  0  0  0  0  0  0  0  0  0
   -2.8406    2.0975    0.9438 H   0  0  0  0  0  0  0  0  0  0  0  0
   -1.1379   -3.1776    0.9044 H   0  0  0  0  0  0  0  0  0  0  0  0
   -1.2869   -3.1894   -0.8784 H   0  0  0  0  0  0  0  0  0  0  0  0
   -2.6005   -2.5425    0.1239 H   0  0  0  0  0  0  0  0  0  0  0  0
    1.3283   -2.9587   -0.1970 H   0  0  0  0  0  0  0  0  0  0  0  0
  1  2  1  0  0  0  0
  2  3  4  0  0  0  0
  3  4  4  0  0  0  0
  4  5  1  0  0  0  0
  2  6  1  0  0  0  0
  5  6  4  0  0  0  0
  6  7  1  0  0  0  0
  7  8  2  0  0  0  0
  7  9  1  0  0  0  0
  9 10  1  0  0  0  0
  9 11  1  0  0  0  0
 11 12  2  0  0  0  0
  5 13  4  0  0  0  0
 11 13  1  0  0  0  0
 13 14  1  0  0  0  0
  1 15  1  0  0  0  0
  1 16  1  0  0  0  0
  1 17  1  0  0  0  0
  3 18  1  0  0  0  0
 10 19  1  0  0  0  0
 10 20  1  0  0  0  0
 10 21  1  0  0  0  0
 14 22  1  0  0  0  0
 14 23  1  0  0  0  0
 14 24  1  0  0  0  0
  4 25  1  0  0  0  0
M  CHG  1   1   1
M  END
