          24
 
C              3.36267513        0.63602984        0.01611476
N              2.26280911       -0.28806179        0.00553796
C              2.33764757       -1.62281825       -0.00850258
N              1.09149629       -2.15466634       -0.00198843
C              0.19210737       -1.11884088        0.01162612
C              0.93146406        0.06029983        0.01680445
C              0.30935995        1.35867236        0.01857481
O              0.88532033        2.42881035        0.02446382
N             -1.08942062        1.25568049        0.00653634
C             -1.84581820        2.49982361       -0.00539324
C             -1.85551249        0.11855626       -0.00147205
O             -3.05682484        0.13139501       -0.02266875
N             -1.16513820       -1.15602010        0.01889242
C             -1.91329703       -2.27229757        0.04608431
H              3.88892832        0.59169677        0.97142451
H              4.06639497        0.39777776       -0.78180249
H              2.97417785        1.64435007       -0.12422747
H              3.24360899       -2.19512870       -0.01891871
H             -1.13750259        3.32473124        0.03595420
H             -2.44494198        2.56301219       -0.91421781
H             -2.51816380        2.53427166        0.85190512
H             -1.45734031       -3.23964807        0.07497236
H             -2.98007361       -2.15178668        0.05908654
H              0.88676524       -3.14236000       -0.02266360
