 xtb: 6.6.1 (8d0f1dd)
          06052420003D

 25 26  0     0  0            999 V2000
    3.3003    1.0690   -0.1129 C   0  0  0  0  0  0  0  0  0  0  0  0
    2.4207    0.0957   -0.0828 N   0  0  0  0  0  0  0  0  0  0  0  0
    2.5649   -1.1602    0.3942 C   0  0  0  0  0  0  0  0  0  0  0  0
    1.3840   -1.8406    0.3038 N   0  0  0  0  0  0  0  0  0  0  0  0
    0.4424   -1.0751   -0.2612 C   0  0  0  0  0  0  0  0  0  0  0  0
    1.0568    0.2359   -0.5747 C   0  0  0  0  0  0  0  0  0  0  0  0
    0.2159    1.3392    0.1444 C   0  0  0  0  0  0  0  0  0  0  0  0
    0.7216    2.2911    0.6664 O   0  0  0  0  0  0  0  0  0  0  0  0
   -1.1231    1.0905    0.0565 N   0  0  0  0  0  0  0  0  0  0  0  0
   -2.0425    2.1753    0.3982 C   0  0  0  0  0  0  0  0  0  0  0  0
   -1.7368   -0.1202   -0.2761 C   0  0  0  0  0  0  0  0  0  0  0  0
   -2.9170   -0.2224   -0.4543 O   0  0  0  0  0  0  0  0  0  0  0  0
   -0.8920   -1.2461   -0.2946 N   0  0  0  0  0  0  0  0  0  0  0  0
   -1.4981   -2.5646   -0.2298 C   0  0  0  0  0  0  0  0  0  0  0  0
    3.0231    2.0273   -0.5044 H   0  0  0  0  0  0  0  0  0  0  0  0
    4.2803    0.9052    0.2943 H   0  0  0  0  0  0  0  0  0  0  0  0
    1.0292    0.5187   -1.6354 H   0  0  0  0  0  0  0  0  0  0  0  0
    3.4707   -1.5681    0.7873 H   0  0  0  0  0  0  0  0  0  0  0  0
   -1.4911    3.1114    0.3906 H   0  0  0  0  0  0  0  0  0  0  0  0
   -2.8449    2.1961   -0.3373 H   0  0  0  0  0  0  0  0  0  0  0  0
   -2.4730    2.0122    1.3855 H   0  0  0  0  0  0  0  0  0  0  0  0
   -1.4427   -2.9696    0.7821 H   0  0  0  0  0  0  0  0  0  0  0  0
   -1.0047   -3.2359   -0.9304 H   0  0  0  0  0  0  0  0  0  0  0  0
   -2.5462   -2.4573   -0.5063 H   0  0  0  0  0  0  0  0  0  0  0  0
    1.2628   -2.7893    0.6280 H   0  0  0  0  0  0  0  0  0  0  0  0
  1  2  4  0  0  0  0
  2  3  4  0  0  0  0
  3  4  1  0  0  0  0
  4  5  4  0  0  0  0
  2  6  1  0  0  0  0
  5  6  1  0  0  0  0
  6  7  1  0  0  0  0
  7  8  2  0  0  0  0
  7  9  1  0  0  0  0
  9 10  1  0  0  0  0
  9 11  1  0  0  0  0
 11 12  2  0  0  0  0
  5 13  4  0  0  0  0
 11 13  1  0  0  0  0
 13 14  1  0  0  0  0
  1 15  1  0  0  0  0
  1 16  1  0  0  0  0
  6 17  1  0  0  0  0
  3 18  1  0  0  0  0
 10 19  1  0  0  0  0
 10 20  1  0  0  0  0
 10 21  1  0  0  0  0
 14 22  1  0  0  0  0
 14 23  1  0  0  0  0
 14 24  1  0  0  0  0
  4 25  1  0  0  0  0
M  CHG  1   1   1
M  END
