          69
 
C             -3.59765348        1.92348327        0.19743645
C             -4.11686022        0.61747201        0.12580383
C             -5.34131647        0.31364707       -0.52924761
C             -5.82594847       -0.97082896       -0.61620185
O             -6.96283077       -1.33797850       -1.24198329
C             -7.76027831       -0.35570091       -1.85888021
C             -5.10413521       -2.04855131       -0.01887695
O             -5.65886320       -3.25983725       -0.14592573
C             -5.01273790       -4.38083861        0.41370215
C             -3.90855187       -1.76099389        0.63815790
C             -3.42296873       -0.47750511        0.70403023
C             -2.17072446        2.13746795        0.56859057
C             -1.19352211        1.45518109       -0.40833316
C              0.14397308        1.14109852        0.26802439
N              0.95674244        0.22440921       -0.50403090
C              2.37636983        0.28141942       -0.22797982
C              3.22247300       -0.07496757       -1.46340990
C              4.67735063       -0.04488062       -1.10003911
C              5.43597995        1.10426361       -1.27145194
C              6.76728745        1.14177637       -0.88936699
C              7.37125607        0.02878964       -0.31887843
O              8.64999256       -0.04708767        0.09234473
C              9.49296851        1.07048991       -0.06757924
C              6.60221139       -1.15562110       -0.13737770
O              7.26323940       -2.18878336        0.41989277
C              6.59336232       -3.41085727        0.61877010
C              5.27240542       -1.16751611       -0.52986965
C              0.43738430       -1.12292751       -0.52946796
C             -4.43049725        3.14386800       -0.03562971
C             -4.58313515        3.92105362        1.28188400
C             -3.83325456        4.03963422       -1.12514339
H             -5.88509476        1.10446057       -1.01598573
H             -8.11757388        0.38353868       -1.13530782
H             -8.61043372       -0.89092426       -2.27678356
H             -7.22048747        0.15104941       -2.66531235
H             -4.91820338       -4.28612612        1.49950399
H             -5.64845931       -5.23273187        0.18011882
H             -4.02385015       -4.53412086       -0.02845999
H             -3.35282843       -2.55346612        1.11373806
H             -2.52205732       -0.30501110        1.26578089
H             -1.94232295        3.19974656        0.62288033
H             -1.99929626        1.72235272        1.57194376
H             -1.64577877        0.53696903       -0.77542608
H             -1.02215116        2.10238175       -1.26895000
H             -0.05167928        0.72551640        1.27169934
H              0.70026473        2.07162970        0.39865259
H              2.64685307       -0.39657870        0.59690800
H              2.63821975        1.29631927        0.07737455
H              3.00839864        0.64470678       -2.25307088
H              2.95530346       -1.06817772       -1.82433330
H              4.98927487        1.98099843       -1.71431302
H              7.33151894        2.04752471       -1.04042768
H              9.12991916        1.93068818        0.50320195
H              9.59429971        1.34757007       -1.12129301
H             10.46231595        0.76306112        0.31992532
H              7.33016451       -4.07951743        1.05970064
H              5.74947823       -3.29856385        1.30682973
H              6.24081368       -3.83357942       -0.32696980
H              4.68189037       -2.06128033       -0.40130006
H             -0.52732811       -1.14623816       -1.03291817
H              0.31050840       -1.52932050        0.48472386
H              1.11642103       -1.76808632       -1.07947759
H             -5.43602865        2.85911868       -0.34863635
H             -3.62589955        4.28837795        1.64083402
H             -5.01730609        3.28202084        2.04717839
H             -5.24047063        4.77261321        1.12806616
H             -2.88573544        4.47238166       -0.81808594
H             -3.67585327        3.47117901       -2.03888198
H             -4.51840437        4.85477628       -1.34222855
