          18
 
C              3.81277495        0.82672030        0.11967302
N              2.83005291       -0.21654537        0.04520782
C              3.04341435       -1.51583278       -0.02903511
N              1.89129430       -2.18978352       -0.09596454
C              0.79316539       -1.29453177       -0.07926762
C              1.44271793        0.01794534        0.02721952
C              0.84075530        1.19542370        0.11672238
O              0.26095735        2.19403233        0.18371188
N             -0.43906376       -1.50856240       -0.14491984
C             -1.10546465       -2.76075213       -0.22178950
H              3.69229092        1.39491130        1.04448947
H              4.81029930        0.39281652        0.09550192
H              3.69892577        1.51091868       -0.72374652
H              4.01780691       -1.96915183       -0.03929252
H             -0.56029418       -3.58919372        0.24088610
H             -1.29953596       -2.99885043       -1.27030582
H             -2.06899646       -2.63383307        0.27196096
H              1.80787661       -3.19250657       -0.16434751
