          68
 
N             -1.90175379        2.56878260        2.35551208
C             -1.75041785        2.08214952        1.21340575
C             -2.87633656        1.92651966        0.20155006
C             -3.43633912        0.50700534        0.28909748
C             -4.50127845        0.16986923       -0.54830026
C             -5.05451380       -1.09887325       -0.53301579
O             -6.07771289       -1.51319467       -1.30934975
C             -6.68339108       -0.59942992       -2.19304653
C             -4.53433631       -2.07501432        0.35840982
O             -5.13069534       -3.28494022        0.30899533
C             -4.72376001       -4.28275403        1.21595044
C             -3.48583665       -1.72611567        1.19345022
C             -2.94013617       -0.44768135        1.15773747
C             -2.29293017        2.18193941       -1.20970827
C             -1.37929024        1.06260367       -1.73625307
C             -0.04629587        1.02138308       -1.09229879
N              0.58550151       -0.08802114       -0.70847139
C              1.97522696       -0.03492227       -0.32294161
C              2.91144000       -0.41224348       -1.48807474
C              4.34183649       -0.29315177       -1.04429817
C              5.01920024        0.90904012       -1.15724958
C              6.32612602        1.03143382       -0.71032125
C              6.97964011       -0.04819601       -0.13523282
O              8.24286721       -0.04276287        0.33387802
C              9.00928476        1.13408940        0.22337365
C              6.29193623       -1.28613091       -0.01381175
O              7.00129237       -2.28473745        0.55266929
C              6.41206864       -3.55575095        0.68476774
C              4.98635636       -1.38457860       -0.46625778
C             -0.02100947       -1.39187761       -0.82235754
C             -3.96112462        2.90724388        0.48334462
C             -4.70470209        2.86049771        1.74040238
H             -4.90471427        0.92495949       -1.20321171
H             -7.10491986        0.25762828       -1.65910134
H             -7.48597231       -1.15170451       -2.67813698
H             -5.97776005       -0.24688519       -2.95257929
H             -4.86057519       -3.96139007        2.25261530
H             -5.36517175       -5.13868304        1.01617355
H             -3.67901186       -4.56934614        1.05636321
H             -3.08343087       -2.44233642        1.89125513
H             -2.13667163       -0.20800522        1.83708152
H             -3.12514425        2.28379069       -1.90643485
H             -1.75181960        3.13110474       -1.20148544
H             -1.89725936        0.10916987       -1.64844540
H             -1.22414602        1.25759480       -2.80653027
H             -0.78924326        1.72469745        0.80399151
H              0.52525159        1.93637817       -1.06031272
H              2.14227714       -0.71993730        0.51265092
H              2.21929238        0.97559919        0.01147389
H              2.71993818        0.26266308       -2.32425475
H              2.69954302       -1.43222303       -1.81108266
H              4.53526109        1.76233305       -1.60783791
H              6.82974244        1.97796178       -0.81815318
H              8.56590494        1.95652569        0.79336590
H              9.13043630        1.43657118       -0.82112790
H              9.98289356        0.88875296        0.64322470
H              7.17186382       -4.18364685        1.14594183
H              5.52908760       -3.52446446        1.33148141
H              6.13870767       -3.97487347       -0.28868385
H              4.45717527       -2.32127137       -0.38612948
H             -0.16203540       -1.67420161       -1.86823855
H             -0.99197783       -1.40689207       -0.32223237
H              0.62374671       -2.12750181       -0.34835731
H             -4.06077645        3.76121352       -0.16688910
H             -4.00393572        3.08794336        2.55795751
H             -5.07917734        1.85731967        1.95179393
H             -5.51808449        3.58044814        1.76091797
H             -1.08232944        2.63547647        2.94948925
