 xtb: 6.6.1 (8d0f1dd)
          04062411163D

 72 75  0     0  0            999 V2000
   -0.8982    1.6308    1.0215 N   0  0  0  0  0  0  0  0  0  0  0  0
   -2.3130    1.5926    1.1966 C   0  0  0  0  0  0  0  0  0  0  0  0
   -3.1471    2.0680   -0.0452 C   0  0  0  0  0  0  0  0  0  0  0  0
   -3.8917    0.7585    0.0513 C   0  0  0  0  0  0  0  0  0  0  0  0
   -4.9711    0.0552   -0.4525 C   0  0  0  0  0  0  0  0  0  0  0  0
   -5.1382   -1.2275    0.0384 C   0  0  0  0  0  0  0  0  0  0  0  0
   -6.1580   -2.0450   -0.2295 O   0  0  0  0  0  0  0  0  0  0  0  0
   -7.2150   -1.6031   -1.0606 C   0  0  0  0  0  0  0  0  0  0  0  0
   -4.0763   -1.9166    0.8810 C   0  0  0  0  0  0  0  0  0  0  0  0
   -3.2218   -2.6572   -0.0145 O   0  0  0  0  0  0  0  0  0  0  0  0
   -3.6735   -3.9479   -0.3490 C   0  0  0  0  0  0  0  0  0  0  0  0
   -3.1564   -0.9699    1.6032 C   0  0  0  0  0  0  0  0  0  0  0  0
   -3.0718    0.2718    1.0998 C   0  0  0  0  0  0  0  0  0  0  0  0
   -2.2593    2.1089   -1.2949 C   0  0  0  0  0  0  0  0  0  0  0  0
   -1.2962    0.9235   -1.3043 C   0  0  0  0  0  0  0  0  0  0  0  0
   -0.2755    1.0689   -0.1718 C   0  0  0  0  0  0  0  0  0  0  0  0
    0.4487   -0.1391    0.1691 N   0  0  0  0  0  0  0  0  0  0  0  0
    1.8734   -0.0491    0.3182 C   0  0  0  0  0  0  0  0  0  0  0  0
    2.6631   -0.2972   -0.9913 C   0  0  0  0  0  0  0  0  0  0  0  0
    4.1257   -0.0977   -0.7422 C   0  0  0  0  0  0  0  0  0  0  0  0
    4.7356    1.1200   -1.0118 C   0  0  0  0  0  0  0  0  0  0  0  0
    6.0786    1.3202   -0.7385 C   0  0  0  0  0  0  0  0  0  0  0  0
    6.8443    0.3068   -0.1764 C   0  0  0  0  0  0  0  0  0  0  0  0
    8.1484    0.3901    0.1376 O   0  0  0  0  0  0  0  0  0  0  0  0
    8.8437    1.5902   -0.1116 C   0  0  0  0  0  0  0  0  0  0  0  0
    6.2284   -0.9463    0.1079 C   0  0  0  0  0  0  0  0  0  0  0  0
    7.0413   -1.8713    0.6508 O   0  0  0  0  0  0  0  0  0  0  0  0
    6.5277   -3.1430    0.9700 C   0  0  0  0  0  0  0  0  0  0  0  0
    4.8837   -1.1228   -0.1800 C   0  0  0  0  0  0  0  0  0  0  0  0
   -0.0792   -1.4436   -0.1278 C   0  0  0  0  0  0  0  0  0  0  0  0
   -3.9935    3.3438    0.1181 C   0  0  0  0  0  0  0  0  0  0  0  0
   -5.0544    3.1842    1.2077 C   0  0  0  0  0  0  0  0  0  0  0  0
   -3.1268    4.5647    0.4188 C   0  0  0  0  0  0  0  0  0  0  0  0
   -5.6591    0.4926   -1.1590 H   0  0  0  0  0  0  0  0  0  0  0  0
   -7.6903   -0.7103   -0.6472 H   0  0  0  0  0  0  0  0  0  0  0  0
   -7.9329   -2.4206   -1.0849 H   0  0  0  0  0  0  0  0  0  0  0  0
   -6.8603   -1.3959   -2.0734 H   0  0  0  0  0  0  0  0  0  0  0  0
   -4.6696   -3.9272   -0.8002 H   0  0  0  0  0  0  0  0  0  0  0  0
   -2.9559   -4.3356   -1.0699 H   0  0  0  0  0  0  0  0  0  0  0  0
   -3.6938   -4.5963    0.5339 H   0  0  0  0  0  0  0  0  0  0  0  0
   -2.5423   -1.3687    2.3927 H   0  0  0  0  0  0  0  0  0  0  0  0
   -4.5545   -2.6260    1.5668 H   0  0  0  0  0  0  0  0  0  0  0  0
   -2.8907    2.0789   -2.1842 H   0  0  0  0  0  0  0  0  0  0  0  0
   -1.6871    3.0359   -1.3075 H   0  0  0  0  0  0  0  0  0  0  0  0
   -1.8650    0.0012   -1.1963 H   0  0  0  0  0  0  0  0  0  0  0  0
   -0.7618    0.8827   -2.2543 H   0  0  0  0  0  0  0  0  0  0  0  0
   -2.5509    2.1324    2.1148 H   0  0  0  0  0  0  0  0  0  0  0  0
    0.4728    1.8151   -0.4858 H   0  0  0  0  0  0  0  0  0  0  0  0
    2.1938   -0.7873    1.0601 H   0  0  0  0  0  0  0  0  0  0  0  0
    2.1266    0.9426    0.6996 H   0  0  0  0  0  0  0  0  0  0  0  0
    2.3107    0.3980   -1.7545 H   0  0  0  0  0  0  0  0  0  0  0  0
    2.4717   -1.3155   -1.3311 H   0  0  0  0  0  0  0  0  0  0  0  0
    4.1621    1.9229   -1.4490 H   0  0  0  0  0  0  0  0  0  0  0  0
    6.5247    2.2741   -0.9674 H   0  0  0  0  0  0  0  0  0  0  0  0
    8.4153    2.4251    0.4511 H   0  0  0  0  0  0  0  0  0  0  0  0
    8.8514    1.8337   -1.1781 H   0  0  0  0  0  0  0  0  0  0  0  0
    9.8630    1.4126    0.2259 H   0  0  0  0  0  0  0  0  0  0  0  0
    7.3637   -3.6982    1.3910 H   0  0  0  0  0  0  0  0  0  0  0  0
    5.7267   -3.0765    1.7129 H   0  0  0  0  0  0  0  0  0  0  0  0
    6.1600   -3.6619    0.0796 H   0  0  0  0  0  0  0  0  0  0  0  0
    4.4093   -2.0699    0.0237 H   0  0  0  0  0  0  0  0  0  0  0  0
   -0.0123   -1.6956   -1.1933 H   0  0  0  0  0  0  0  0  0  0  0  0
   -1.1231   -1.5170    0.1750 H   0  0  0  0  0  0  0  0  0  0  0  0
    0.4906   -2.1826    0.4345 H   0  0  0  0  0  0  0  0  0  0  0  0
   -4.5103    3.5065   -0.8350 H   0  0  0  0  0  0  0  0  0  0  0  0
   -4.5978    3.0718    2.1879 H   0  0  0  0  0  0  0  0  0  0  0  0
   -5.6826    2.3167    1.0220 H   0  0  0  0  0  0  0  0  0  0  0  0
   -5.6891    4.0661    1.2335 H   0  0  0  0  0  0  0  0  0  0  0  0
   -2.5126    4.3947    1.2993 H   0  0  0  0  0  0  0  0  0  0  0  0
   -2.4747    4.8107   -0.4140 H   0  0  0  0  0  0  0  0  0  0  0  0
   -3.7631    5.4255    0.6075 H   0  0  0  0  0  0  0  0  0  0  0  0
   -0.3815    1.3887    1.8562 H   0  0  0  0  0  0  0  0  0  0  0  0
  1  2  1  0  0  0  0
  2  3  1  0  0  0  0
  3  4  1  0  0  0  0
  4  5  4  0  0  0  0
  5  6  4  0  0  0  0
  6  7  1  0  0  0  0
  7  8  1  0  0  0  0
  6  9  1  0  0  0  0
  9 10  1  0  0  0  0
 10 11  1  0  0  0  0
  9 12  1  0  0  0  0
  2 13  1  0  0  0  0
  4 13  1  0  0  0  0
 12 13  2  0  0  0  0
  3 14  1  0  0  0  0
 14 15  1  0  0  0  0
  1 16  1  0  0  0  0
 15 16  1  0  0  0  0
 16 17  1  0  0  0  0
 17 18  1  0  0  0  0
 18 19  1  0  0  0  0
 19 20  1  0  0  0  0
 20 21  4  0  0  0  0
 21 22  4  0  0  0  0
 22 23  4  0  0  0  0
 23 24  1  0  0  0  0
 24 25  1  0  0  0  0
 23 26  4  0  0  0  0
 26 27  1  0  0  0  0
 27 28  1  0  0  0  0
 20 29  4  0  0  0  0
 26 29  4  0  0  0  0
 17 30  1  0  0  0  0
  3 31  1  0  0  0  0
 31 32  1  0  0  0  0
 31 33  1  0  0  0  0
  5 34  1  0  0  0  0
  8 35  1  0  0  0  0
  8 36  1  0  0  0  0
  8 37  1  0  0  0  0
 11 38  1  0  0  0  0
 11 39  1  0  0  0  0
 11 40  1  0  0  0  0
 12 41  1  0  0  0  0
  9 42  1  0  0  0  0
 14 43  1  0  0  0  0
 14 44  1  0  0  0  0
 15 45  1  0  0  0  0
 15 46  1  0  0  0  0
  2 47  1  0  0  0  0
 16 48  1  0  0  0  0
 18 49  1  0  0  0  0
 18 50  1  0  0  0  0
 19 51  1  0  0  0  0
 19 52  1  0  0  0  0
 21 53  1  0  0  0  0
 22 54  1  0  0  0  0
 25 55  1  0  0  0  0
 25 56  1  0  0  0  0
 25 57  1  0  0  0  0
 28 58  1  0  0  0  0
 28 59  1  0  0  0  0
 28 60  1  0  0  0  0
 29 61  1  0  0  0  0
 30 62  1  0  0  0  0
 30 63  1  0  0  0  0
 30 64  1  0  0  0  0
 31 65  1  0  0  0  0
 32 66  1  0  0  0  0
 32 67  1  0  0  0  0
 32 68  1  0  0  0  0
 33 69  1  0  0  0  0
 33 70  1  0  0  0  0
 33 71  1  0  0  0  0
  1 72  1  0  0  0  0
M  CHG  1   1   1
M  END
