 xtb: 6.6.1 (8d0f1dd)
          06052419583D

 25 24  0     0  0            999 V2000
    3.7060    2.0575   -0.1160 C   0  0  0  0  0  0  0  0  0  0  0  0
    3.5867    0.7004   -0.0005 N   0  0  0  0  0  0  0  0  0  0  0  0
    3.4034   -0.4373    0.0933 C   0  0  0  0  0  0  0  0  0  0  0  0
    1.7291   -2.8733    0.3643 N   0  0  0  0  0  0  0  0  0  0  0  0
    0.9954   -1.8903    0.2626 C   0  0  0  0  0  0  0  0  0  0  0  0
    0.4375   -0.7777    0.1161 C   0  0  0  0  0  0  0  0  0  0  0  0
    0.0723    0.5253    0.0001 C   0  0  0  0  0  0  0  0  0  0  0  0
    0.7574    1.5201   -0.1541 O   0  0  0  0  0  0  0  0  0  0  0  0
   -1.4145    0.7596    0.0854 N   0  0  0  0  0  0  0  0  0  0  0  0
   -1.8988    2.1222   -0.0317 C   0  0  0  0  0  0  0  0  0  0  0  0
   -2.2206   -0.2053    0.3022 C   0  0  0  0  0  0  0  0  0  0  0  0
   -3.4877   -0.4383    0.5317 O   0  0  0  0  0  0  0  0  0  0  0  0
   -2.3982   -1.5022    0.6040 N   0  0  0  0  0  0  0  0  0  0  0  0
   -2.4940   -2.5555   -0.3652 C   0  0  0  0  0  0  0  0  0  0  0  0
    4.1837    2.4599    0.7803 H   0  0  0  0  0  0  0  0  0  0  0  0
    4.3076    2.2992   -0.9941 H   0  0  0  0  0  0  0  0  0  0  0  0
    2.7007    2.4795   -0.2236 H   0  0  0  0  0  0  0  0  0  0  0  0
    3.2980   -1.4906    0.1885 H   0  0  0  0  0  0  0  0  0  0  0  0
   -1.0719    2.7817    0.2305 H   0  0  0  0  0  0  0  0  0  0  0  0
   -2.1969    2.3253   -1.0612 H   0  0  0  0  0  0  0  0  0  0  0  0
   -2.7451    2.2817    0.6330 H   0  0  0  0  0  0  0  0  0  0  0  0
   -1.5151   -3.0317   -0.3883 H   0  0  0  0  0  0  0  0  0  0  0  0
   -2.7598   -2.2107   -1.3666 H   0  0  0  0  0  0  0  0  0  0  0  0
   -3.2321   -3.2697   -0.0046 H   0  0  0  0  0  0  0  0  0  0  0  0
    1.4176   -3.8115    0.5449 H   0  0  0  0  0  0  0  0  0  0  0  0
  1  2  1  0  0  0  0
  2  3  3  0  0  0  0
  4  5  2  0  0  0  0
  5  6  2  0  0  0  0
  6  7  4  0  0  0  0
  7  8  2  0  0  0  0
  7  9  1  0  0  0  0
  9 10  1  0  0  0  0
  9 11  2  0  0  0  0
 11 12  1  0  0  0  0
 11 13  1  0  0  0  0
 12 13  1  0  0  0  0
 13 14  1  0  0  0  0
  1 15  1  0  0  0  0
  1 16  1  0  0  0  0
  1 17  1  0  0  0  0
  3 18  1  0  0  0  0
 10 19  1  0  0  0  0
 10 20  1  0  0  0  0
 10 21  1  0  0  0  0
 14 22  1  0  0  0  0
 14 23  1  0  0  0  0
 14 24  1  0  0  0  0
  4 25  1  0  0  0  0
M  CHG  1   1   1
M  END
