 xtb: 6.6.1 (8d0f1dd)
          04062411123D

 72 72  0     0  0            999 V2000
   -1.2203    4.4362    2.1819 N   0  0  0  0  0  0  0  0  0  0  0  0
   -1.8061    3.9092    1.2667 C   0  0  0  0  0  0  0  0  0  0  0  0
   -2.4604    3.5506    0.1917 C   0  0  0  0  0  0  0  0  0  0  0  0
   -4.0508    0.0469    0.9975 C   0  0  0  0  0  0  0  0  0  0  0  0
   -4.7110   -0.3895   -0.1417 C   0  0  0  0  0  0  0  0  0  0  0  0
   -4.7503   -1.7403   -0.4572 C   0  0  0  0  0  0  0  0  0  0  0  0
   -5.3681   -2.2772   -1.5279 O   0  0  0  0  0  0  0  0  0  0  0  0
   -6.1135   -1.4418   -2.3821 C   0  0  0  0  0  0  0  0  0  0  0  0
   -4.1039   -2.6722    0.4019 C   0  0  0  0  0  0  0  0  0  0  0  0
   -4.2010   -3.9611    0.0197 O   0  0  0  0  0  0  0  0  0  0  0  0
   -3.6677   -4.9673    0.8484 C   0  0  0  0  0  0  0  0  0  0  0  0
   -3.4490   -2.2119    1.5351 C   0  0  0  0  0  0  0  0  0  0  0  0
   -3.4237   -0.8550    1.8326 C   0  0  0  0  0  0  0  0  0  0  0  0
   -1.7312    3.1697   -1.0697 C   0  0  0  0  0  0  0  0  0  0  0  0
   -1.4157    1.6695   -1.1363 C   0  0  0  0  0  0  0  0  0  0  0  0
   -0.4578    1.2429   -0.0152 C   0  0  0  0  0  0  0  0  0  0  0  0
    0.2775    0.0549   -0.3749 N   0  0  0  0  0  0  0  0  0  0  0  0
    1.6679   -0.0282    0.0004 C   0  0  0  0  0  0  0  0  0  0  0  0
    2.5343   -0.4989   -1.1872 C   0  0  0  0  0  0  0  0  0  0  0  0
    3.9900   -0.3206   -0.8751 C   0  0  0  0  0  0  0  0  0  0  0  0
    4.6281    0.8806   -1.1552 C   0  0  0  0  0  0  0  0  0  0  0  0
    5.9652    1.0678   -0.8463 C   0  0  0  0  0  0  0  0  0  0  0  0
    6.6984    0.0548   -0.2419 C   0  0  0  0  0  0  0  0  0  0  0  0
    7.9974    0.1213    0.0997 O   0  0  0  0  0  0  0  0  0  0  0  0
    8.7251    1.2954   -0.1778 C   0  0  0  0  0  0  0  0  0  0  0  0
    6.0532   -1.1794    0.0560 C   0  0  0  0  0  0  0  0  0  0  0  0
    6.8365   -2.1057    0.6395 O   0  0  0  0  0  0  0  0  0  0  0  0
    6.2993   -3.3683    0.9540 C   0  0  0  0  0  0  0  0  0  0  0  0
    4.7129   -1.3411   -0.2637 C   0  0  0  0  0  0  0  0  0  0  0  0
   -0.4581   -1.1766   -0.2631 C   0  0  0  0  0  0  0  0  0  0  0  0
   -3.9752    3.5362    0.1831 C   0  0  0  0  0  0  0  0  0  0  0  0
   -4.5709    2.9388    1.3960 C   0  0  0  0  0  0  0  0  0  0  0  0
   -4.4810    4.9958    0.0319 C   0  0  0  0  0  0  0  0  0  0  0  0
   -5.2081    0.3294   -0.7734 H   0  0  0  0  0  0  0  0  0  0  0  0
   -6.9108   -0.9240   -1.8403 H   0  0  0  0  0  0  0  0  0  0  0  0
   -6.5540   -2.1024   -3.1261 H   0  0  0  0  0  0  0  0  0  0  0  0
   -5.4748   -0.7078   -2.8841 H   0  0  0  0  0  0  0  0  0  0  0  0
   -4.1302   -4.9563    1.8397 H   0  0  0  0  0  0  0  0  0  0  0  0
   -3.9007   -5.9074    0.3520 H   0  0  0  0  0  0  0  0  0  0  0  0
   -2.5821   -4.8706    0.9497 H   0  0  0  0  0  0  0  0  0  0  0  0
   -2.9645   -2.9054    2.2031 H   0  0  0  0  0  0  0  0  0  0  0  0
   -2.9217   -0.5160    2.7258 H   0  0  0  0  0  0  0  0  0  0  0  0
   -2.3541    3.4387   -1.9249 H   0  0  0  0  0  0  0  0  0  0  0  0
   -0.7983    3.7324   -1.1414 H   0  0  0  0  0  0  0  0  0  0  0  0
   -2.3404    1.0936   -1.0798 H   0  0  0  0  0  0  0  0  0  0  0  0
   -0.9374    1.4575   -2.0936 H   0  0  0  0  0  0  0  0  0  0  0  0
   -1.0265    1.0916    0.9152 H   0  0  0  0  0  0  0  0  0  0  0  0
    0.2574    2.0513    0.1513 H   0  0  0  0  0  0  0  0  0  0  0  0
    1.8137   -0.7140    0.8465 H   0  0  0  0  0  0  0  0  0  0  0  0
    2.0207    0.9591    0.3049 H   0  0  0  0  0  0  0  0  0  0  0  0
    2.2648    0.0990   -2.0582 H   0  0  0  0  0  0  0  0  0  0  0  0
    2.3197   -1.5445   -1.4074 H   0  0  0  0  0  0  0  0  0  0  0  0
    4.0806    1.6802   -1.6304 H   0  0  0  0  0  0  0  0  0  0  0  0
    6.4332    2.0091   -1.0843 H   0  0  0  0  0  0  0  0  0  0  0  0
    8.3109    2.1584    0.3523 H   0  0  0  0  0  0  0  0  0  0  0  0
    8.7526    1.5046   -1.2514 H   0  0  0  0  0  0  0  0  0  0  0  0
    9.7354    1.1038    0.1787 H   0  0  0  0  0  0  0  0  0  0  0  0
    7.1178   -3.9312    1.3984 H   0  0  0  0  0  0  0  0  0  0  0  0
    5.4813   -3.2872    1.6767 H   0  0  0  0  0  0  0  0  0  0  0  0
    5.9463   -3.8882    0.0581 H   0  0  0  0  0  0  0  0  0  0  0  0
    4.2171   -2.2744   -0.0479 H   0  0  0  0  0  0  0  0  0  0  0  0
   -1.4181   -1.0800   -0.7654 H   0  0  0  0  0  0  0  0  0  0  0  0
   -0.6463   -1.4507    0.7853 H   0  0  0  0  0  0  0  0  0  0  0  0
    0.1021   -1.9794   -0.7373 H   0  0  0  0  0  0  0  0  0  0  0  0
   -4.3106    2.9868   -0.7042 H   0  0  0  0  0  0  0  0  0  0  0  0
   -4.1025    3.1008    2.3506 H   0  0  0  0  0  0  0  0  0  0  0  0
   -4.0703    1.1216    1.2368 H   0  0  0  0  0  0  0  0  0  0  0  0
   -5.6282    2.7401    1.3983 H   0  0  0  0  0  0  0  0  0  0  0  0
   -4.1949    5.5799    0.9026 H   0  0  0  0  0  0  0  0  0  0  0  0
   -4.0380    5.4460   -0.8527 H   0  0  0  0  0  0  0  0  0  0  0  0
   -5.5629    5.0117   -0.0669 H   0  0  0  0  0  0  0  0  0  0  0  0
   -0.8419    3.9721    2.9939 H   0  0  0  0  0  0  0  0  0  0  0  0
  1  2  2  0  0  0  0
  2  3  2  0  0  0  0
  4  5  4  0  0  0  0
  5  6  4  0  0  0  0
  6  7  1  0  0  0  0
  7  8  1  0  0  0  0
  6  9  4  0  0  0  0
  9 10  1  0  0  0  0
 10 11  1  0  0  0  0
  9 12  4  0  0  0  0
  4 13  4  0  0  0  0
 12 13  4  0  0  0  0
  3 14  1  0  0  0  0
 14 15  1  0  0  0  0
 15 16  1  0  0  0  0
 16 17  1  0  0  0  0
 17 18  1  0  0  0  0
 18 19  1  0  0  0  0
 19 20  1  0  0  0  0
 20 21  4  0  0  0  0
 21 22  4  0  0  0  0
 22 23  4  0  0  0  0
 23 24  1  0  0  0  0
 24 25  1  0  0  0  0
 23 26  4  0  0  0  0
 26 27  1  0  0  0  0
 27 28  1  0  0  0  0
 20 29  4  0  0  0  0
 26 29  4  0  0  0  0
 17 30  1  0  0  0  0
  3 31  1  0  0  0  0
 31 32  1  0  0  0  0
 31 33  1  0  0  0  0
  5 34  1  0  0  0  0
  8 35  1  0  0  0  0
  8 36  1  0  0  0  0
  8 37  1  0  0  0  0
 11 38  1  0  0  0  0
 11 39  1  0  0  0  0
 11 40  1  0  0  0  0
 12 41  1  0  0  0  0
 13 42  1  0  0  0  0
 14 43  1  0  0  0  0
 14 44  1  0  0  0  0
 15 45  1  0  0  0  0
 15 46  1  0  0  0  0
 16 47  1  0  0  0  0
 16 48  1  0  0  0  0
 18 49  1  0  0  0  0
 18 50  1  0  0  0  0
 19 51  1  0  0  0  0
 19 52  1  0  0  0  0
 21 53  1  0  0  0  0
 22 54  1  0  0  0  0
 25 55  1  0  0  0  0
 25 56  1  0  0  0  0
 25 57  1  0  0  0  0
 28 58  1  0  0  0  0
 28 59  1  0  0  0  0
 28 60  1  0  0  0  0
 29 61  1  0  0  0  0
 30 62  1  0  0  0  0
 30 63  1  0  0  0  0
 30 64  1  0  0  0  0
 31 65  1  0  0  0  0
 32 66  1  0  0  0  0
  4 67  1  0  0  0  0
 32 68  1  0  0  0  0
 33 69  1  0  0  0  0
 33 70  1  0  0  0  0
 33 71  1  0  0  0  0
  1 72  1  0  0  0  0
M  CHG  1   1   1
M  END
