 xtb: 6.6.1 (8d0f1dd)
          04062411143D

 72 73  0     0  0            999 V2000
   -0.8362    2.4742    1.7442 N   0  0  0  0  0  0  0  0  0  0  0  0
   -2.0521    2.1660    1.7994 C   0  0  0  0  0  0  0  0  0  0  0  0
   -2.8736    1.8955    0.5679 C   0  0  0  0  0  0  0  0  0  0  0  0
   -3.3735    0.4606    0.5711 C   0  0  0  0  0  0  0  0  0  0  0  0
   -4.2806    0.0416   -0.4042 C   0  0  0  0  0  0  0  0  0  0  0  0
   -4.7681   -1.2541   -0.4336 C   0  0  0  0  0  0  0  0  0  0  0  0
   -5.6517   -1.7346   -1.3332 O   0  0  0  0  0  0  0  0  0  0  0  0
   -6.1966   -0.8638   -2.2957 C   0  0  0  0  0  0  0  0  0  0  0  0
   -4.3313   -2.1878    0.5442 C   0  0  0  0  0  0  0  0  0  0  0  0
   -4.8663   -3.4228    0.4474 O   0  0  0  0  0  0  0  0  0  0  0  0
   -4.5562   -4.3829    1.4295 C   0  0  0  0  0  0  0  0  0  0  0  0
   -3.4126   -1.7734    1.4952 C   0  0  0  0  0  0  0  0  0  0  0  0
   -2.9394   -0.4677    1.5054 C   0  0  0  0  0  0  0  0  0  0  0  0
   -2.0655    2.1810   -0.7215 C   0  0  0  0  0  0  0  0  0  0  0  0
   -1.2389    1.0251   -1.2857 C   0  0  0  0  0  0  0  0  0  0  0  0
   -0.0669    0.6264   -0.3832 C   0  0  0  0  0  0  0  0  0  0  0  0
    0.8538   -0.2469   -1.0745 N   0  0  0  0  0  0  0  0  0  0  0  0
    1.9466    0.2390   -1.6212 C   0  0  0  0  0  0  0  0  0  0  0  0
    3.0215   -0.5434   -2.2682 C   0  0  0  0  0  0  0  0  0  0  0  0
    4.2977   -0.2377   -1.5097 C   0  0  0  0  0  0  0  0  0  0  0  0
    5.0002    0.9276   -1.7673 C   0  0  0  0  0  0  0  0  0  0  0  0
    6.1572    1.2254   -1.0647 C   0  0  0  0  0  0  0  0  0  0  0  0
    6.6337    0.3630   -0.0877 C   0  0  0  0  0  0  0  0  0  0  0  0
    7.7459    0.5493    0.6473 O   0  0  0  0  0  0  0  0  0  0  0  0
    8.5362    1.6937    0.4169 C   0  0  0  0  0  0  0  0  0  0  0  0
    5.9148   -0.8330    0.1851 C   0  0  0  0  0  0  0  0  0  0  0  0
    6.4480   -1.6169    1.1437 O   0  0  0  0  0  0  0  0  0  0  0  0
    5.8409   -2.8503    1.4438 C   0  0  0  0  0  0  0  0  0  0  0  0
    4.7559   -1.1080   -0.5245 C   0  0  0  0  0  0  0  0  0  0  0  0
    0.4708   -1.6331   -1.2056 C   0  0  0  0  0  0  0  0  0  0  0  0
   -4.0968    2.8701    0.6217 C   0  0  0  0  0  0  0  0  0  0  0  0
   -5.0528    2.5638    1.7742 C   0  0  0  0  0  0  0  0  0  0  0  0
   -3.6559    4.3312    0.6915 C   0  0  0  0  0  0  0  0  0  0  0  0
   -4.6161    0.7453   -1.1474 H   0  0  0  0  0  0  0  0  0  0  0  0
   -6.7397   -0.0376   -1.8273 H   0  0  0  0  0  0  0  0  0  0  0  0
   -6.8911   -1.4684   -2.8759 H   0  0  0  0  0  0  0  0  0  0  0  0
   -5.4239   -0.4646   -2.9605 H   0  0  0  0  0  0  0  0  0  0  0  0
   -4.8350   -4.0379    2.4297 H   0  0  0  0  0  0  0  0  0  0  0  0
   -5.1452   -5.2617    1.1750 H   0  0  0  0  0  0  0  0  0  0  0  0
   -3.4931   -4.6437    1.4165 H   0  0  0  0  0  0  0  0  0  0  0  0
   -3.0623   -2.4613    2.2480 H   0  0  0  0  0  0  0  0  0  0  0  0
   -2.2302   -0.1845    2.2685 H   0  0  0  0  0  0  0  0  0  0  0  0
   -2.7621    2.4866   -1.5029 H   0  0  0  0  0  0  0  0  0  0  0  0
   -1.3974    3.0153   -0.5141 H   0  0  0  0  0  0  0  0  0  0  0  0
   -1.8792    0.1619   -1.4730 H   0  0  0  0  0  0  0  0  0  0  0  0
   -0.8278    1.3522   -2.2441 H   0  0  0  0  0  0  0  0  0  0  0  0
   -2.6223    2.1090    2.7307 H   0  0  0  0  0  0  0  0  0  0  0  0
    0.4519    1.5277   -0.0569 H   0  0  0  0  0  0  0  0  0  0  0  0
   -0.4283    0.1076    0.5037 H   0  0  0  0  0  0  0  0  0  0  0  0
    2.1219    1.2967   -1.4949 H   0  0  0  0  0  0  0  0  0  0  0  0
    3.1430   -0.2157   -3.3053 H   0  0  0  0  0  0  0  0  0  0  0  0
    2.8184   -1.6120   -2.2641 H   0  0  0  0  0  0  0  0  0  0  0  0
    4.6583    1.6098   -2.5305 H   0  0  0  0  0  0  0  0  0  0  0  0
    6.6875    2.1349   -1.2940 H   0  0  0  0  0  0  0  0  0  0  0  0
    7.9857    2.6123    0.6430 H   0  0  0  0  0  0  0  0  0  0  0  0
    8.8994    1.7292   -0.6144 H   0  0  0  0  0  0  0  0  0  0  0  0
    9.3832    1.6052    1.0945 H   0  0  0  0  0  0  0  0  0  0  0  0
    6.4699   -3.3077    2.2050 H   0  0  0  0  0  0  0  0  0  0  0  0
    4.8311   -2.7142    1.8447 H   0  0  0  0  0  0  0  0  0  0  0  0
    5.8033   -3.5036    0.5664 H   0  0  0  0  0  0  0  0  0  0  0  0
    4.2098   -2.0174   -0.3282 H   0  0  0  0  0  0  0  0  0  0  0  0
    0.4498   -1.9359   -2.2538 H   0  0  0  0  0  0  0  0  0  0  0  0
   -0.5216   -1.7719   -0.7840 H   0  0  0  0  0  0  0  0  0  0  0  0
    1.1690   -2.2797   -0.6691 H   0  0  0  0  0  0  0  0  0  0  0  0
   -4.6530    2.7339   -0.3096 H   0  0  0  0  0  0  0  0  0  0  0  0
   -4.6448    2.8890    2.7276 H   0  0  0  0  0  0  0  0  0  0  0  0
   -5.2766    1.5016    1.8324 H   0  0  0  0  0  0  0  0  0  0  0  0
   -5.9859    3.0997    1.6201 H   0  0  0  0  0  0  0  0  0  0  0  0
   -3.0003    4.5026    1.5421 H   0  0  0  0  0  0  0  0  0  0  0  0
   -3.1326    4.6347   -0.2110 H   0  0  0  0  0  0  0  0  0  0  0  0
   -4.5300    4.9685    0.8049 H   0  0  0  0  0  0  0  0  0  0  0  0
   -0.3856    2.6811    2.6313 H   0  0  0  0  0  0  0  0  0  0  0  0
  1  2  2  0  0  0  0
  2  3  1  0  0  0  0
  3  4  1  0  0  0  0
  4  5  4  0  0  0  0
  5  6  4  0  0  0  0
  6  7  1  0  0  0  0
  7  8  1  0  0  0  0
  6  9  4  0  0  0  0
  9 10  1  0  0  0  0
 10 11  1  0  0  0  0
  9 12  4  0  0  0  0
  4 13  4  0  0  0  0
 12 13  4  0  0  0  0
  3 14  1  0  0  0  0
 14 15  1  0  0  0  0
 15 16  1  0  0  0  0
 16 17  1  0  0  0  0
 17 18  4  0  0  0  0
 18 19  1  0  0  0  0
 19 20  1  0  0  0  0
 20 21  4  0  0  0  0
 21 22  4  0  0  0  0
 22 23  4  0  0  0  0
 23 24  1  0  0  0  0
 24 25  1  0  0  0  0
 23 26  4  0  0  0  0
 26 27  1  0  0  0  0
 27 28  1  0  0  0  0
 20 29  4  0  0  0  0
 26 29  4  0  0  0  0
 17 30  1  0  0  0  0
  3 31  1  0  0  0  0
 31 32  1  0  0  0  0
 31 33  1  0  0  0  0
  5 34  1  0  0  0  0
  8 35  1  0  0  0  0
  8 36  1  0  0  0  0
  8 37  1  0  0  0  0
 11 38  1  0  0  0  0
 11 39  1  0  0  0  0
 11 40  1  0  0  0  0
 12 41  1  0  0  0  0
 13 42  1  0  0  0  0
 14 43  1  0  0  0  0
 14 44  1  0  0  0  0
 15 45  1  0  0  0  0
 15 46  1  0  0  0  0
  2 47  1  0  0  0  0
 16 48  1  0  0  0  0
 16 49  1  0  0  0  0
 18 50  1  0  0  0  0
 19 51  1  0  0  0  0
 19 52  1  0  0  0  0
 21 53  1  0  0  0  0
 22 54  1  0  0  0  0
 25 55  1  0  0  0  0
 25 56  1  0  0  0  0
 25 57  1  0  0  0  0
 28 58  1  0  0  0  0
 28 59  1  0  0  0  0
 28 60  1  0  0  0  0
 29 61  1  0  0  0  0
 30 62  1  0  0  0  0
 30 63  1  0  0  0  0
 30 64  1  0  0  0  0
 31 65  1  0  0  0  0
 32 66  1  0  0  0  0
 32 67  1  0  0  0  0
 32 68  1  0  0  0  0
 33 69  1  0  0  0  0
 33 70  1  0  0  0  0
 33 71  1  0  0  0  0
  1 72  1  0  0  0  0
M  CHG  1   1   1
M  END
