 xtb: 6.6.1 (8d0f1dd)
          06052419593D

 25 25  0     0  0            999 V2000
    3.1900    1.1559    0.0240 C   0  0  0  0  0  0  0  0  0  0  0  0
    2.1928    0.1234    0.0099 N   0  0  0  0  0  0  0  0  0  0  0  0
    2.4035   -1.2134    0.0087 C   0  0  0  0  0  0  0  0  0  0  0  0
    1.2917   -1.9124    0.0067 N   0  0  0  0  0  0  0  0  0  0  0  0
    0.2924   -1.0036    0.0081 C   0  0  0  0  0  0  0  0  0  0  0  0
    0.8420    0.2896    0.0100 C   0  0  0  0  0  0  0  0  0  0  0  0
    0.0185    1.4734   -0.0015 C   0  0  0  0  0  0  0  0  0  0  0  0
    0.4166    2.6163   -0.0144 O   0  0  0  0  0  0  0  0  0  0  0  0
   -1.3388    1.1511    0.0002 N   0  0  0  0  0  0  0  0  0  0  0  0
   -2.2924    2.2460   -0.0090 C   0  0  0  0  0  0  0  0  0  0  0  0
   -1.9048   -0.1162    0.0061 C   0  0  0  0  0  0  0  0  0  0  0  0
   -3.0982   -0.2680    0.0091 O   0  0  0  0  0  0  0  0  0  0  0  0
   -1.0366   -1.2154    0.0075 N   0  0  0  0  0  0  0  0  0  0  0  0
   -1.5889   -2.5490    0.0099 C   0  0  0  0  0  0  0  0  0  0  0  0
    3.6994    1.1765    0.9901 H   0  0  0  0  0  0  0  0  0  0  0  0
    3.9314    0.9718   -0.7543 H   0  0  0  0  0  0  0  0  0  0  0  0
    2.7110    2.1201   -0.1434 H   0  0  0  0  0  0  0  0  0  0  0  0
    3.3817   -1.6539    0.0096 H   0  0  0  0  0  0  0  0  0  0  0  0
   -1.7412    3.1846   -0.0043 H   0  0  0  0  0  0  0  0  0  0  0  0
   -2.9243    2.1811   -0.8967 H   0  0  0  0  0  0  0  0  0  0  0  0
   -2.9406    2.1808    0.8669 H   0  0  0  0  0  0  0  0  0  0  0  0
   -1.2318   -3.0947    0.8840 H   0  0  0  0  0  0  0  0  0  0  0  0
   -1.2717   -3.0837   -0.8862 H   0  0  0  0  0  0  0  0  0  0  0  0
   -2.6742   -2.4692    0.0327 H   0  0  0  0  0  0  0  0  0  0  0  0
    2.8330   -4.4730   -0.1425 H   0  0  0  0  0  0  0  0  0  0  0  0
  1  2  1  0  0  0  0
  2  3  4  0  0  0  0
  3  4  4  0  0  0  0
  4  5  4  0  0  0  0
  2  6  4  0  0  0  0
  5  6  4  0  0  0  0
  6  7  1  0  0  0  0
  7  8  2  0  0  0  0
  7  9  1  0  0  0  0
  9 10  1  0  0  0  0
  9 11  1  0  0  0  0
 11 12  2  0  0  0  0
  5 13  4  0  0  0  0
 11 13  1  0  0  0  0
 13 14  1  0  0  0  0
  1 15  1  0  0  0  0
  1 16  1  0  0  0  0
  1 17  1  0  0  0  0
  3 18  1  0  0  0  0
 10 19  1  0  0  0  0
 10 20  1  0  0  0  0
 10 21  1  0  0  0  0
 14 22  1  0  0  0  0
 14 23  1  0  0  0  0
 14 24  1  0  0  0  0
M  CHG  1   1   1
M  END
