 xtb: 6.6.1 (8d0f1dd)
          04062411133D

 72 73  0     0  0            999 V2000
   -2.3960    2.0867    2.4820 N   0  0  0  0  0  0  0  0  0  0  0  0
   -2.3934    2.4077    1.2710 C   0  0  0  0  0  0  0  0  0  0  0  0
   -3.4686    1.9941    0.3027 C   0  0  0  0  0  0  0  0  0  0  0  0
   -3.9622    0.5651    0.4702 C   0  0  0  0  0  0  0  0  0  0  0  0
   -4.9276    0.0932   -0.4243 C   0  0  0  0  0  0  0  0  0  0  0  0
   -5.4118   -1.2029   -0.3585 C   0  0  0  0  0  0  0  0  0  0  0  0
   -6.3335   -1.7328   -1.1907 O   0  0  0  0  0  0  0  0  0  0  0  0
   -6.9202   -0.9185   -2.1780 C   0  0  0  0  0  0  0  0  0  0  0  0
   -4.9195   -2.0825    0.6444 C   0  0  0  0  0  0  0  0  0  0  0  0
   -5.4363   -3.3266    0.6350 O   0  0  0  0  0  0  0  0  0  0  0  0
   -5.0202   -4.2469    1.6168 C   0  0  0  0  0  0  0  0  0  0  0  0
   -3.9663   -1.6049    1.5315 C   0  0  0  0  0  0  0  0  0  0  0  0
   -3.4939   -0.3039    1.4430 C   0  0  0  0  0  0  0  0  0  0  0  0
   -2.9434    2.1863   -1.1429 C   0  0  0  0  0  0  0  0  0  0  0  0
   -2.1360    0.9968   -1.6734 C   0  0  0  0  0  0  0  0  0  0  0  0
   -0.9741    0.6359   -0.7985 C   0  0  0  0  0  0  0  0  0  0  0  0
   -0.5581   -0.5000   -0.4672 N   0  0  0  0  0  0  0  0  0  0  0  0
    3.7618    0.0489   -1.1585 C   0  0  0  0  0  0  0  0  0  0  0  0
    4.4337   -0.4906   -2.3521 C   0  0  0  0  0  0  0  0  0  0  0  0
    5.3019   -0.0529   -1.1525 C   0  0  0  0  0  0  0  0  0  0  0  0
    6.0633    1.1703   -1.2884 C   0  0  0  0  0  0  0  0  0  0  0  0
    7.2863    1.3176   -0.7051 C   0  0  0  0  0  0  0  0  0  0  0  0
    7.8606    0.2880    0.0577 C   0  0  0  0  0  0  0  0  0  0  0  0
    9.0467    0.3399    0.6608 O   0  0  0  0  0  0  0  0  0  0  0  0
    9.8319    1.5102    0.5757 C   0  0  0  0  0  0  0  0  0  0  0  0
    7.1383   -0.9443    0.2280 C   0  0  0  0  0  0  0  0  0  0  0  0
    7.7794   -1.8617    0.9786 O   0  0  0  0  0  0  0  0  0  0  0  0
    7.1679   -3.1139    1.1912 C   0  0  0  0  0  0  0  0  0  0  0  0
    5.9116   -1.0998   -0.3476 C   0  0  0  0  0  0  0  0  0  0  0  0
   -1.1550   -1.7363   -0.8692 C   0  0  0  0  0  0  0  0  0  0  0  0
   -4.6806    2.9574    0.5639 C   0  0  0  0  0  0  0  0  0  0  0  0
   -5.3663    2.6315    1.8867 C   0  0  0  0  0  0  0  0  0  0  0  0
   -4.2780    4.4311    0.5353 C   0  0  0  0  0  0  0  0  0  0  0  0
   -5.3102    0.7513   -1.1868 H   0  0  0  0  0  0  0  0  0  0  0  0
   -7.4331   -0.0588   -1.7364 H   0  0  0  0  0  0  0  0  0  0  0  0
   -7.6474   -1.5507   -2.6837 H   0  0  0  0  0  0  0  0  0  0  0  0
   -6.1793   -0.5699   -2.9051 H   0  0  0  0  0  0  0  0  0  0  0  0
   -5.2607   -3.8937    2.6238 H   0  0  0  0  0  0  0  0  0  0  0  0
   -5.5730   -5.1617    1.4127 H   0  0  0  0  0  0  0  0  0  0  0  0
   -3.9467   -4.4479    1.5475 H   0  0  0  0  0  0  0  0  0  0  0  0
   -3.5775   -2.2443    2.3069 H   0  0  0  0  0  0  0  0  0  0  0  0
   -2.7622    0.0315    2.1576 H   0  0  0  0  0  0  0  0  0  0  0  0
   -3.7831    2.3529   -1.8194 H   0  0  0  0  0  0  0  0  0  0  0  0
   -2.3195    3.0810   -1.1821 H   0  0  0  0  0  0  0  0  0  0  0  0
   -2.7805    0.1276   -1.8093 H   0  0  0  0  0  0  0  0  0  0  0  0
   -1.7307    1.2650   -2.6549 H   0  0  0  0  0  0  0  0  0  0  0  0
   -1.6456    3.0866    0.8402 H   0  0  0  0  0  0  0  0  0  0  0  0
   -0.3890    1.4707   -0.4234 H   0  0  0  0  0  0  0  0  0  0  0  0
    3.2303   -0.6237   -0.5037 H   0  0  0  0  0  0  0  0  0  0  0  0
    3.3489    1.0450   -1.1970 H   0  0  0  0  0  0  0  0  0  0  0  0
    4.5019    0.1194   -3.2391 H   0  0  0  0  0  0  0  0  0  0  0  0
    4.3903   -1.5508   -2.5449 H   0  0  0  0  0  0  0  0  0  0  0  0
    5.6406    1.9723   -1.8724 H   0  0  0  0  0  0  0  0  0  0  0  0
    7.8232    2.2434   -0.8358 H   0  0  0  0  0  0  0  0  0  0  0  0
    9.3091    2.3721    1.0006 H   0  0  0  0  0  0  0  0  0  0  0  0
   10.1169    1.7255   -0.4583 H   0  0  0  0  0  0  0  0  0  0  0  0
   10.7262    1.3047    1.1615 H   0  0  0  0  0  0  0  0  0  0  0  0
    7.8681   -3.6807    1.8012 H   0  0  0  0  0  0  0  0  0  0  0  0
    6.2204   -3.0095    1.7282 H   0  0  0  0  0  0  0  0  0  0  0  0
    6.9997   -3.6405    0.2470 H   0  0  0  0  0  0  0  0  0  0  0  0
    5.3533   -2.0134   -0.2272 H   0  0  0  0  0  0  0  0  0  0  0  0
   -0.9011   -1.9558   -1.9088 H   0  0  0  0  0  0  0  0  0  0  0  0
   -2.2440   -1.7372   -0.7685 H   0  0  0  0  0  0  0  0  0  0  0  0
   -0.7384   -2.5217   -0.2389 H   0  0  0  0  0  0  0  0  0  0  0  0
   -5.3988    2.7898   -0.2453 H   0  0  0  0  0  0  0  0  0  0  0  0
   -4.6504    2.6641    2.7043 H   0  0  0  0  0  0  0  0  0  0  0  0
   -5.8087    1.6392    1.8642 H   0  0  0  0  0  0  0  0  0  0  0  0
   -6.1524    3.3560    2.0824 H   0  0  0  0  0  0  0  0  0  0  0  0
   -3.6312    4.6741    1.3747 H   0  0  0  0  0  0  0  0  0  0  0  0
   -3.7713    4.6945   -0.3894 H   0  0  0  0  0  0  0  0  0  0  0  0
   -5.1701    5.0483    0.6125 H   0  0  0  0  0  0  0  0  0  0  0  0
   -1.6601    2.4673    3.0690 H   0  0  0  0  0  0  0  0  0  0  0  0
  1  2  2  0  0  0  0
  2  3  1  0  0  0  0
  3  4  1  0  0  0  0
  4  5  4  0  0  0  0
  5  6  4  0  0  0  0
  6  7  1  0  0  0  0
  7  8  1  0  0  0  0
  6  9  4  0  0  0  0
  9 10  1  0  0  0  0
 10 11  1  0  0  0  0
  9 12  4  0  0  0  0
  4 13  4  0  0  0  0
 12 13  4  0  0  0  0
  3 14  1  0  0  0  0
 14 15  1  0  0  0  0
 15 16  1  0  0  0  0
 16 17  2  0  0  0  0
 18 19  1  0  0  0  0
 18 20  1  0  0  0  0
 19 20  1  0  0  0  0
 20 21  1  0  0  0  0
 21 22  2  0  0  0  0
 22 23  4  0  0  0  0
 23 24  1  0  0  0  0
 24 25  1  0  0  0  0
 23 26  1  0  0  0  0
 26 27  1  0  0  0  0
 27 28  1  0  0  0  0
 20 29  1  0  0  0  0
 26 29  2  0  0  0  0
 17 30  1  0  0  0  0
  3 31  1  0  0  0  0
 31 32  1  0  0  0  0
 31 33  1  0  0  0  0
  5 34  1  0  0  0  0
  8 35  1  0  0  0  0
  8 36  1  0  0  0  0
  8 37  1  0  0  0  0
 11 38  1  0  0  0  0
 11 39  1  0  0  0  0
 11 40  1  0  0  0  0
 12 41  1  0  0  0  0
 13 42  1  0  0  0  0
 14 43  1  0  0  0  0
 14 44  1  0  0  0  0
 15 45  1  0  0  0  0
 15 46  1  0  0  0  0
  2 47  1  0  0  0  0
 16 48  1  0  0  0  0
 18 49  1  0  0  0  0
 18 50  1  0  0  0  0
 19 51  1  0  0  0  0
 19 52  1  0  0  0  0
 21 53  1  0  0  0  0
 22 54  1  0  0  0  0
 25 55  1  0  0  0  0
 25 56  1  0  0  0  0
 25 57  1  0  0  0  0
 28 58  1  0  0  0  0
 28 59  1  0  0  0  0
 28 60  1  0  0  0  0
 29 61  1  0  0  0  0
 30 62  1  0  0  0  0
 30 63  1  0  0  0  0
 30 64  1  0  0  0  0
 31 65  1  0  0  0  0
 32 66  1  0  0  0  0
 32 67  1  0  0  0  0
 32 68  1  0  0  0  0
 33 69  1  0  0  0  0
 33 70  1  0  0  0  0
 33 71  1  0  0  0  0
  1 72  1  0  0  0  0
M  CHG  1   1   1
M  END
