 xtb: 6.6.1 (8d0f1dd)
          06052419573D

 25 25  0     0  0            999 V2000
    3.8189    2.8840    0.2566 C   0  0  0  0  0  0  0  0  0  0  0  0
    2.2216   -0.6670   -0.2017 N   0  0  0  0  0  0  0  0  0  0  0  0
    2.2677   -1.9673   -0.2253 C   0  0  0  0  0  0  0  0  0  0  0  0
    1.0225   -2.5355   -0.1670 N   0  0  0  0  0  0  0  0  0  0  0  0
    0.1398   -1.5063   -0.1057 C   0  0  0  0  0  0  0  0  0  0  0  0
    0.9131   -0.3339   -0.1279 C   0  0  0  0  0  0  0  0  0  0  0  0
    0.2815    0.9665   -0.0758 C   0  0  0  0  0  0  0  0  0  0  0  0
    0.8506    2.0350   -0.0982 O   0  0  0  0  0  0  0  0  0  0  0  0
   -1.1065    0.8707    0.0107 N   0  0  0  0  0  0  0  0  0  0  0  0
   -1.8688    2.1109    0.0769 C   0  0  0  0  0  0  0  0  0  0  0  0
   -1.8774   -0.2743    0.0393 C   0  0  0  0  0  0  0  0  0  0  0  0
   -3.0745   -0.2476    0.1190 O   0  0  0  0  0  0  0  0  0  0  0  0
   -1.1963   -1.5147   -0.0280 N   0  0  0  0  0  0  0  0  0  0  0  0
   -1.9693   -2.7364   -0.0112 C   0  0  0  0  0  0  0  0  0  0  0  0
    4.1305    3.0939    1.2643 H   0  0  0  0  0  0  0  0  0  0  0  0
    4.5381    2.9384   -0.5403 H   0  0  0  0  0  0  0  0  0  0  0  0
    2.7880    2.6308    0.0477 H   0  0  0  0  0  0  0  0  0  0  0  0
    3.1713   -2.5408   -0.2808 H   0  0  0  0  0  0  0  0  0  0  0  0
   -1.1715    2.9418    0.0081 H   0  0  0  0  0  0  0  0  0  0  0  0
   -2.5852    2.1480   -0.7431 H   0  0  0  0  0  0  0  0  0  0  0  0
   -2.4200    2.1564    1.0159 H   0  0  0  0  0  0  0  0  0  0  0  0
   -1.6805   -3.3577    0.8378 H   0  0  0  0  0  0  0  0  0  0  0  0
   -1.8237   -3.2903   -0.9396 H   0  0  0  0  0  0  0  0  0  0  0  0
   -3.0200   -2.4638    0.0825 H   0  0  0  0  0  0  0  0  0  0  0  0
    0.8104   -3.5228   -0.1831 H   0  0  0  0  0  0  0  0  0  0  0  0
  2  3  2  0  0  0  0
  3  4  4  0  0  0  0
  4  5  4  0  0  0  0
  2  6  4  0  0  0  0
  5  6  4  0  0  0  0
  6  7  1  0  0  0  0
  7  8  2  0  0  0  0
  7  9  1  0  0  0  0
  9 10  1  0  0  0  0
  9 11  1  0  0  0  0
 11 12  2  0  0  0  0
  5 13  4  0  0  0  0
 11 13  1  0  0  0  0
 13 14  1  0  0  0  0
  1 15  1  0  0  0  0
  1 16  1  0  0  0  0
  1 17  1  0  0  0  0
  3 18  1  0  0  0  0
 10 19  1  0  0  0  0
 10 20  1  0  0  0  0
 10 21  1  0  0  0  0
 14 22  1  0  0  0  0
 14 23  1  0  0  0  0
 14 24  1  0  0  0  0
  4 25  1  0  0  0  0
M  CHG  1   1   1
M  END
