 xtb: 6.6.1 (8d0f1dd)
          04062411143D

 72 72  0     0  0            999 V2000
   -1.8025    2.8614    2.1924 N   0  0  0  0  0  0  0  0  0  0  0  0
   -1.7952    2.0850    1.2157 C   0  0  0  0  0  0  0  0  0  0  0  0
   -2.9582    1.8773    0.2837 C   0  0  0  0  0  0  0  0  0  0  0  0
   -3.4004    0.4237    0.3473 C   0  0  0  0  0  0  0  0  0  0  0  0
   -4.3141   -0.0662   -0.5879 C   0  0  0  0  0  0  0  0  0  0  0  0
   -4.7690   -1.3742   -0.5390 C   0  0  0  0  0  0  0  0  0  0  0  0
   -5.6549   -1.9227   -1.3928 O   0  0  0  0  0  0  0  0  0  0  0  0
   -6.2645   -1.1155   -2.3729 C   0  0  0  0  0  0  0  0  0  0  0  0
   -4.2888   -2.2452    0.4792 C   0  0  0  0  0  0  0  0  0  0  0  0
   -4.7828   -3.4953    0.4521 O   0  0  0  0  0  0  0  0  0  0  0  0
   -4.4221   -4.4001    1.4712 C   0  0  0  0  0  0  0  0  0  0  0  0
   -3.3800   -1.7507    1.4030 C   0  0  0  0  0  0  0  0  0  0  0  0
   -2.9472   -0.4341    1.3395 C   0  0  0  0  0  0  0  0  0  0  0  0
   -2.4336    2.2194   -1.1358 C   0  0  0  0  0  0  0  0  0  0  0  0
   -1.4989    1.1619   -1.7439 C   0  0  0  0  0  0  0  0  0  0  0  0
   -0.1552    1.1351   -1.1256 C   0  0  0  0  0  0  0  0  0  0  0  0
    0.5588    0.0674   -0.8541 N   0  0  0  0  0  0  0  0  0  0  0  0
    1.9296    0.1958   -0.4304 C   0  0  0  0  0  0  0  0  0  0  0  0
    2.9111   -0.0814   -1.5813 C   0  0  0  0  0  0  0  0  0  0  0  0
    4.3165    0.0438   -1.0702 C   0  0  0  0  0  0  0  0  0  0  0  0
    5.0766    1.1967   -1.2852 C   0  0  0  0  0  0  0  0  0  0  0  0
    6.3629    1.3017   -0.7841 C   0  0  0  0  0  0  0  0  0  0  0  0
    6.9379    0.2742   -0.0453 C   0  0  0  0  0  0  0  0  0  0  0  0
    8.1751    0.2622    0.4707 O   0  0  0  0  0  0  0  0  0  0  0  0
    9.0162    1.3763    0.2714 C   0  0  0  0  0  0  0  0  0  0  0  0
    6.1625   -0.9077    0.2051 C   0  0  0  0  0  0  0  0  0  0  0  0
    6.7285   -1.8705    0.9404 O   0  0  0  0  0  0  0  0  0  0  0  0
    5.9530   -3.0341    1.1287 C   0  0  0  0  0  0  0  0  0  0  0  0
    4.9023   -0.9442   -0.3273 C   0  0  0  0  0  0  0  0  0  0  0  0
    0.0642   -1.2802   -0.9592 C   0  0  0  0  0  0  0  0  0  0  0  0
   -4.1866    2.7746    0.6188 C   0  0  0  0  0  0  0  0  0  0  0  0
   -4.7637    2.4396    1.9917 C   0  0  0  0  0  0  0  0  0  0  0  0
   -3.8835    4.2680    0.5369 C   0  0  0  0  0  0  0  0  0  0  0  0
   -4.6874    0.5895   -1.3571 H   0  0  0  0  0  0  0  0  0  0  0  0
   -6.8016   -0.2755   -1.9227 H   0  0  0  0  0  0  0  0  0  0  0  0
   -6.9735   -1.7634   -2.8844 H   0  0  0  0  0  0  0  0  0  0  0  0
   -5.5339   -0.7395   -3.0965 H   0  0  0  0  0  0  0  0  0  0  0  0
   -4.7093   -4.0250    2.4578 H   0  0  0  0  0  0  0  0  0  0  0  0
   -4.9724   -5.3143    1.2578 H   0  0  0  0  0  0  0  0  0  0  0  0
   -3.3485   -4.6114    1.4585 H   0  0  0  0  0  0  0  0  0  0  0  0
   -3.0071   -2.3829    2.1919 H   0  0  0  0  0  0  0  0  0  0  0  0
   -2.2641   -0.0810    2.0958 H   0  0  0  0  0  0  0  0  0  0  0  0
   -3.2869    2.3393   -1.8026 H   0  0  0  0  0  0  0  0  0  0  0  0
   -1.9118    3.1762   -1.0947 H   0  0  0  0  0  0  0  0  0  0  0  0
   -1.9794    0.1850   -1.7229 H   0  0  0  0  0  0  0  0  0  0  0  0
   -1.3546    1.4328   -2.7979 H   0  0  0  0  0  0  0  0  0  0  0  0
   -0.9113    1.4977    0.9053 H   0  0  0  0  0  0  0  0  0  0  0  0
    0.3412    2.0888   -1.0038 H   0  0  0  0  0  0  0  0  0  0  0  0
    2.1094   -0.5503    0.3730 H   0  0  0  0  0  0  0  0  0  0  0  0
    2.1072    1.1990   -0.0375 H   0  0  0  0  0  0  0  0  0  0  0  0
    2.7377    0.6343   -2.3882 H   0  0  0  0  0  0  0  0  0  0  0  0
    2.7517   -1.0914   -1.9605 H   0  0  0  0  0  0  0  0  0  0  0  0
    4.6586    2.0099   -1.8594 H   0  0  0  0  0  0  0  0  0  0  0  0
    6.9244    2.2019   -0.9766 H   0  0  0  0  0  0  0  0  0  0  0  0
    8.5924    2.2802    0.7191 H   0  0  0  0  0  0  0  0  0  0  0  0
    9.2046    1.5481   -0.7926 H   0  0  0  0  0  0  0  0  0  0  0  0
    9.9517    1.1299    0.7695 H   0  0  0  0  0  0  0  0  0  0  0  0
    6.5075   -3.6675    1.8169 H   0  0  0  0  0  0  0  0  0  0  0  0
    4.9731   -2.7865    1.5494 H   0  0  0  0  0  0  0  0  0  0  0  0
    5.8046   -3.5566    0.1785 H   0  0  0  0  0  0  0  0  0  0  0  0
    1.8408   -2.0420    1.2202 H   0  0  0  0  0  0  0  0  0  0  0  0
    0.2805   -1.7031   -1.9407 H   0  0  0  0  0  0  0  0  0  0  0  0
   -1.0070   -1.3225   -0.7803 H   0  0  0  0  0  0  0  0  0  0  0  0
    0.5752   -1.8882   -0.1986 H   0  0  0  0  0  0  0  0  0  0  0  0
   -4.9510    2.5426   -0.1320 H   0  0  0  0  0  0  0  0  0  0  0  0
   -4.0467    2.6881    2.7679 H   0  0  0  0  0  0  0  0  0  0  0  0
   -5.0145    1.3842    2.0665 H   0  0  0  0  0  0  0  0  0  0  0  0
   -5.6678    3.0190    2.1585 H   0  0  0  0  0  0  0  0  0  0  0  0
   -3.0955    4.5309    1.2359 H   0  0  0  0  0  0  0  0  0  0  0  0
   -3.5919    4.5708   -0.4652 H   0  0  0  0  0  0  0  0  0  0  0  0
   -4.7759    4.8270    0.8057 H   0  0  0  0  0  0  0  0  0  0  0  0
   -0.9558    2.9482    2.7450 H   0  0  0  0  0  0  0  0  0  0  0  0
  1  2  2  0  0  0  0
  2  3  1  0  0  0  0
  3  4  1  0  0  0  0
  4  5  4  0  0  0  0
  5  6  4  0  0  0  0
  6  7  1  0  0  0  0
  7  8  1  0  0  0  0
  6  9  4  0  0  0  0
  9 10  1  0  0  0  0
 10 11  1  0  0  0  0
  9 12  4  0  0  0  0
  4 13  4  0  0  0  0
 12 13  4  0  0  0  0
  3 14  1  0  0  0  0
 14 15  1  0  0  0  0
 15 16  1  0  0  0  0
 16 17  4  0  0  0  0
 17 18  1  0  0  0  0
 18 19  1  0  0  0  0
 19 20  1  0  0  0  0
 20 21  4  0  0  0  0
 21 22  4  0  0  0  0
 22 23  4  0  0  0  0
 23 24  1  0  0  0  0
 24 25  1  0  0  0  0
 23 26  1  0  0  0  0
 26 27  1  0  0  0  0
 27 28  1  0  0  0  0
 20 29  4  0  0  0  0
 26 29  4  0  0  0  0
 17 30  1  0  0  0  0
  3 31  1  0  0  0  0
 31 32  1  0  0  0  0
 31 33  1  0  0  0  0
  5 34  1  0  0  0  0
  8 35  1  0  0  0  0
  8 36  1  0  0  0  0
  8 37  1  0  0  0  0
 11 38  1  0  0  0  0
 11 39  1  0  0  0  0
 11 40  1  0  0  0  0
 12 41  1  0  0  0  0
 13 42  1  0  0  0  0
 14 43  1  0  0  0  0
 14 44  1  0  0  0  0
 15 45  1  0  0  0  0
 15 46  1  0  0  0  0
  2 47  1  0  0  0  0
 16 48  1  0  0  0  0
 18 49  1  0  0  0  0
 18 50  1  0  0  0  0
 19 51  1  0  0  0  0
 19 52  1  0  0  0  0
 21 53  1  0  0  0  0
 22 54  1  0  0  0  0
 25 55  1  0  0  0  0
 25 56  1  0  0  0  0
 25 57  1  0  0  0  0
 28 58  1  0  0  0  0
 28 59  1  0  0  0  0
 28 60  1  0  0  0  0
 30 62  1  0  0  0  0
 30 63  1  0  0  0  0
 30 64  1  0  0  0  0
 31 65  1  0  0  0  0
 32 66  1  0  0  0  0
 32 67  1  0  0  0  0
 32 68  1  0  0  0  0
 33 69  1  0  0  0  0
 33 70  1  0  0  0  0
 33 71  1  0  0  0  0
  1 72  1  0  0  0  0
M  CHG  1   1   1
M  END
