 xtb: 6.6.1 (8d0f1dd)
          06052419573D

 25 26  0     0  0            999 V2000
    3.4125    0.8648    0.0744 C   0  0  0  0  0  0  0  0  0  0  0  0
    2.2714   -0.0571    0.0323 N   0  0  0  0  0  0  0  0  0  0  0  0
    3.4265   -0.6096    0.0926 C   0  0  0  0  0  0  0  0  0  0  0  0
    0.8138   -2.5458   -0.1220 N   0  0  0  0  0  0  0  0  0  0  0  0
    0.2621   -1.4140   -0.0476 C   0  0  0  0  0  0  0  0  0  0  0  0
    0.9350   -0.0978   -0.0134 C   0  0  0  0  0  0  0  0  0  0  0  0
    0.1769    1.0830   -0.0254 C   0  0  0  0  0  0  0  0  0  0  0  0
    0.7004    2.3004   -0.0403 O   0  0  0  0  0  0  0  0  0  0  0  0
   -1.1526    1.0061   -0.0193 N   0  0  0  0  0  0  0  0  0  0  0  0
   -1.9892    2.1937   -0.0407 C   0  0  0  0  0  0  0  0  0  0  0  0
   -1.8700   -0.2316    0.0297 C   0  0  0  0  0  0  0  0  0  0  0  0
   -3.0653   -0.2050    0.0793 O   0  0  0  0  0  0  0  0  0  0  0  0
   -1.1152   -1.3658    0.0128 N   0  0  0  0  0  0  0  0  0  0  0  0
   -1.8099   -2.6450    0.0227 C   0  0  0  0  0  0  0  0  0  0  0  0
    3.5911    1.4089    0.9973 H   0  0  0  0  0  0  0  0  0  0  0  0
    3.6798    1.3844   -0.8409 H   0  0  0  0  0  0  0  0  0  0  0  0
    1.6685    2.3141   -0.0592 H   0  0  0  0  0  0  0  0  0  0  0  0
    3.9553   -1.5299    0.1431 H   0  0  0  0  0  0  0  0  0  0  0  0
   -1.3674    3.0828   -0.0251 H   0  0  0  0  0  0  0  0  0  0  0  0
   -2.6078    2.1809   -0.9380 H   0  0  0  0  0  0  0  0  0  0  0  0
   -2.6531    2.1797    0.8234 H   0  0  0  0  0  0  0  0  0  0  0  0
   -1.4466   -3.2430    0.8562 H   0  0  0  0  0  0  0  0  0  0  0  0
   -1.5983   -3.1792   -0.9022 H   0  0  0  0  0  0  0  0  0  0  0  0
   -2.8761   -2.4591    0.1193 H   0  0  0  0  0  0  0  0  0  0  0  0
    1.8188   -2.5977   -0.1776 H   0  0  0  0  0  0  0  0  0  0  0  0
  1  2  1  0  0  0  0
  1  3  1  0  0  0  0
  2  3  2  0  0  0  0
  4  5  2  0  0  0  0
  2  6  4  0  0  0  0
  5  6  1  0  0  0  0
  6  7  4  0  0  0  0
  7  8  1  0  0  0  0
  7  9  4  0  0  0  0
  9 10  1  0  0  0  0
  9 11  1  0  0  0  0
 11 12  2  0  0  0  0
  5 13  1  0  0  0  0
 11 13  1  0  0  0  0
 13 14  1  0  0  0  0
  1 15  1  0  0  0  0
  1 16  1  0  0  0  0
  8 17  1  0  0  0  0
  3 18  1  0  0  0  0
 10 19  1  0  0  0  0
 10 20  1  0  0  0  0
 10 21  1  0  0  0  0
 14 22  1  0  0  0  0
 14 23  1  0  0  0  0
 14 24  1  0  0  0  0
  4 25  1  0  0  0  0
M  CHG  1   1   1
M  END
