 xtb: 6.6.1 (8d0f1dd)
          04062411153D

 72 73  0     0  0            999 V2000
   -2.6119    3.1380    2.2966 N   0  0  0  0  0  0  0  0  0  0  0  0
   -2.1960    2.2434    1.3472 C   0  0  0  0  0  0  0  0  0  0  0  0
   -2.7837    2.4427    0.1574 C   0  0  0  0  0  0  0  0  0  0  0  0
   -4.7569    0.1286    1.6062 C   0  0  0  0  0  0  0  0  0  0  0  0
   -5.3039   -0.0235    0.3370 C   0  0  0  0  0  0  0  0  0  0  0  0
   -5.0224   -1.1494   -0.4248 C   0  0  0  0  0  0  0  0  0  0  0  0
   -5.4952   -1.3929   -1.6706 O   0  0  0  0  0  0  0  0  0  0  0  0
   -6.4905   -0.5453   -2.1948 C   0  0  0  0  0  0  0  0  0  0  0  0
   -4.1761   -2.1540    0.1095 C   0  0  0  0  0  0  0  0  0  0  0  0
   -3.9538   -3.2206   -0.7006 O   0  0  0  0  0  0  0  0  0  0  0  0
   -3.3382   -4.3653   -0.1602 C   0  0  0  0  0  0  0  0  0  0  0  0
   -3.6421   -1.9892    1.3781 C   0  0  0  0  0  0  0  0  0  0  0  0
   -3.9278   -0.8488    2.1222 C   0  0  0  0  0  0  0  0  0  0  0  0
   -2.5646    1.7361   -1.1368 C   0  0  0  0  0  0  0  0  0  0  0  0
   -1.7835    0.4312   -0.9873 C   0  0  0  0  0  0  0  0  0  0  0  0
   -0.3677    0.6597   -0.6307 C   0  0  0  0  0  0  0  0  0  0  0  0
    0.4417   -0.3009   -0.2001 N   0  0  0  0  0  0  0  0  0  0  0  0
    1.8415   -0.0481    0.0428 C   0  0  0  0  0  0  0  0  0  0  0  0
    2.7249   -0.4821   -1.1436 C   0  0  0  0  0  0  0  0  0  0  0  0
    4.1703   -0.2220   -0.8223 C   0  0  0  0  0  0  0  0  0  0  0  0
    4.7366    1.0179   -1.0651 C   0  0  0  0  0  0  0  0  0  0  0  0
    6.0591    1.2713   -0.7338 C   0  0  0  0  0  0  0  0  0  0  0  0
    6.8415    0.2876   -0.1477 C   0  0  0  0  0  0  0  0  0  0  0  0
    8.1317    0.4223    0.2179 O   0  0  0  0  0  0  0  0  0  0  0  0
    8.7831    1.6509   -0.0072 C   0  0  0  0  0  0  0  0  0  0  0  0
    6.2699   -0.9890    0.1035 C   0  0  0  0  0  0  0  0  0  0  0  0
    7.1020   -1.8893    0.6684 O   0  0  0  0  0  0  0  0  0  0  0  0
    6.6356   -3.1928    0.9202 C   0  0  0  0  0  0  0  0  0  0  0  0
    4.9457   -1.2183   -0.2331 C   0  0  0  0  0  0  0  0  0  0  0  0
   -0.0284   -1.6583   -0.0788 C   0  0  0  0  0  0  0  0  0  0  0  0
   -3.7723    3.5824    0.2789 C   0  0  0  0  0  0  0  0  0  0  0  0
   -3.7240    3.9164    1.7858 C   0  0  0  0  0  0  0  0  0  0  0  0
   -3.3856    4.7805   -0.5905 C   0  0  0  0  0  0  0  0  0  0  0  0
   -5.9644    0.7371   -0.0438 H   0  0  0  0  0  0  0  0  0  0  0  0
   -7.3568   -0.4858   -1.5298 H   0  0  0  0  0  0  0  0  0  0  0  0
   -6.7919   -0.9939   -3.1394 H   0  0  0  0  0  0  0  0  0  0  0  0
   -6.1056    0.4629   -2.3826 H   0  0  0  0  0  0  0  0  0  0  0  0
   -3.8786   -4.7347    0.7162 H   0  0  0  0  0  0  0  0  0  0  0  0
   -3.3732   -5.1163   -0.9471 H   0  0  0  0  0  0  0  0  0  0  0  0
   -2.2932   -4.1766    0.1101 H   0  0  0  0  0  0  0  0  0  0  0  0
   -3.0188   -2.7588    1.8074 H   0  0  0  0  0  0  0  0  0  0  0  0
   -3.5101   -0.7440    3.1106 H   0  0  0  0  0  0  0  0  0  0  0  0
   -3.5396    1.5135   -1.5780 H   0  0  0  0  0  0  0  0  0  0  0  0
   -2.0425    2.3970   -1.8367 H   0  0  0  0  0  0  0  0  0  0  0  0
   -2.2777   -0.1947   -0.2377 H   0  0  0  0  0  0  0  0  0  0  0  0
   -1.8378   -0.1228   -1.9341 H   0  0  0  0  0  0  0  0  0  0  0  0
   -1.4405    1.5233    1.6056 H   0  0  0  0  0  0  0  0  0  0  0  0
    0.0494    1.6480   -0.7286 H   0  0  0  0  0  0  0  0  0  0  0  0
    2.1507   -0.5914    0.9399 H   0  0  0  0  0  0  0  0  0  0  0  0
    1.9880    1.0185    0.2223 H   0  0  0  0  0  0  0  0  0  0  0  0
    2.4285    0.0838   -2.0282 H   0  0  0  0  0  0  0  0  0  0  0  0
    2.5714   -1.5430   -1.3455 H   0  0  0  0  0  0  0  0  0  0  0  0
    4.1514    1.7982   -1.5276 H   0  0  0  0  0  0  0  0  0  0  0  0
    6.4738    2.2440   -0.9415 H   0  0  0  0  0  0  0  0  0  0  0  0
    8.3029    2.4661    0.5428 H   0  0  0  0  0  0  0  0  0  0  0  0
    8.8161    1.8979   -1.0726 H   0  0  0  0  0  0  0  0  0  0  0  0
    9.7976    1.5151    0.3629 H   0  0  0  0  0  0  0  0  0  0  0  0
    7.4812   -3.7280    1.3479 H   0  0  0  0  0  0  0  0  0  0  0  0
    5.8088   -3.1925    1.6381 H   0  0  0  0  0  0  0  0  0  0  0  0
    6.3208   -3.6919   -0.0017 H   0  0  0  0  0  0  0  0  0  0  0  0
    4.5045   -2.1859   -0.0513 H   0  0  0  0  0  0  0  0  0  0  0  0
   -0.4046   -2.0297   -1.0345 H   0  0  0  0  0  0  0  0  0  0  0  0
   -0.8410   -1.7126    0.6498 H   0  0  0  0  0  0  0  0  0  0  0  0
    0.7848   -2.2978    0.2541 H   0  0  0  0  0  0  0  0  0  0  0  0
   -4.7733    3.2544   -0.0186 H   0  0  0  0  0  0  0  0  0  0  0  0
   -3.5421    4.9804    1.9584 H   0  0  0  0  0  0  0  0  0  0  0  0
   -4.6580    3.6480    2.2918 H   0  0  0  0  0  0  0  0  0  0  0  0
   -4.9947    0.9993    2.1843 H   0  0  0  0  0  0  0  0  0  0  0  0
   -2.3809    5.1160   -0.3459 H   0  0  0  0  0  0  0  0  0  0  0  0
   -3.4202    4.5145   -1.6436 H   0  0  0  0  0  0  0  0  0  0  0  0
   -4.0778    5.6018   -0.4243 H   0  0  0  0  0  0  0  0  0  0  0  0
   -2.5587    2.9257    3.2786 H   0  0  0  0  0  0  0  0  0  0  0  0
  1  2  1  0  0  0  0
  2  3  2  0  0  0  0
  4  5  4  0  0  0  0
  5  6  4  0  0  0  0
  6  7  1  0  0  0  0
  7  8  1  0  0  0  0
  6  9  4  0  0  0  0
  9 10  1  0  0  0  0
 10 11  1  0  0  0  0
  9 12  4  0  0  0  0
  4 13  4  0  0  0  0
 12 13  4  0  0  0  0
  3 14  1  0  0  0  0
 14 15  1  0  0  0  0
 15 16  1  0  0  0  0
 16 17  4  0  0  0  0
 17 18  1  0  0  0  0
 18 19  1  0  0  0  0
 19 20  1  0  0  0  0
 20 21  4  0  0  0  0
 21 22  4  0  0  0  0
 22 23  4  0  0  0  0
 23 24  1  0  0  0  0
 24 25  1  0  0  0  0
 23 26  4  0  0  0  0
 26 27  1  0  0  0  0
 27 28  1  0  0  0  0
 20 29  4  0  0  0  0
 26 29  4  0  0  0  0
 17 30  1  0  0  0  0
  3 31  1  0  0  0  0
  1 32  1  0  0  0  0
 31 32  1  0  0  0  0
 31 33  1  0  0  0  0
  5 34  1  0  0  0  0
  8 35  1  0  0  0  0
  8 36  1  0  0  0  0
  8 37  1  0  0  0  0
 11 38  1  0  0  0  0
 11 39  1  0  0  0  0
 11 40  1  0  0  0  0
 12 41  1  0  0  0  0
 13 42  1  0  0  0  0
 14 43  1  0  0  0  0
 14 44  1  0  0  0  0
 15 45  1  0  0  0  0
 15 46  1  0  0  0  0
  2 47  1  0  0  0  0
 16 48  1  0  0  0  0
 18 49  1  0  0  0  0
 18 50  1  0  0  0  0
 19 51  1  0  0  0  0
 19 52  1  0  0  0  0
 21 53  1  0  0  0  0
 22 54  1  0  0  0  0
 25 55  1  0  0  0  0
 25 56  1  0  0  0  0
 25 57  1  0  0  0  0
 28 58  1  0  0  0  0
 28 59  1  0  0  0  0
 28 60  1  0  0  0  0
 29 61  1  0  0  0  0
 30 62  1  0  0  0  0
 30 63  1  0  0  0  0
 30 64  1  0  0  0  0
 31 65  1  0  0  0  0
 32 66  1  0  0  0  0
 32 67  1  0  0  0  0
  4 68  1  0  0  0  0
 33 69  1  0  0  0  0
 33 70  1  0  0  0  0
 33 71  1  0  0  0  0
  1 72  1  0  0  0  0
M  CHG  1   1   1
M  END
