 xtb: 6.6.1 (8d0f1dd)
          06052419593D

 25 26  0     0  0            999 V2000
    3.2179    1.1359    0.0184 c   0  0  0  0  0  0  0  0  0  0  0  0
    2.2703    0.0520    0.0004 n   0  0  0  0  0  0  0  0  0  0  0  0
    2.5417   -1.2397   -0.0083 c   0  0  0  0  0  0  0  0  0  0  0  0
    1.3937   -1.9509   -0.0085 n   0  0  0  0  0  0  0  0  0  0  0  0
    0.3527   -1.0675    0.0006 c   0  0  0  0  0  0  0  0  0  0  0  0
    0.9076    0.2007    0.0066 c   0  0  0  0  0  0  0  0  0  0  0  0
    0.0759    1.3986   -0.0028 c   0  0  0  0  0  0  0  0  0  0  0  0
    0.4872    2.5317   -0.0173 o   0  0  0  0  0  0  0  0  0  0  0  0
   -1.2722    1.0667    0.0017 n   0  0  0  0  0  0  0  0  0  0  0  0
   -2.2323    2.1666   -0.0025 c   0  0  0  0  0  0  0  0  0  0  0  0
   -1.8487   -0.1918    0.0050 c   0  0  0  0  0  0  0  0  0  0  0  0
   -3.0327   -0.3610    0.0086 o   0  0  0  0  0  0  0  0  0  0  0  0
   -0.9660   -1.3006    0.0017 n   0  0  0  0  0  0  0  0  0  0  0  0
   -1.5203   -2.6408   -0.0024 c   0  0  0  0  0  0  0  0  0  0  0  0
    3.7148    1.1859    0.9880 h   0  0  0  0  0  0  0  0  0  0  0  0
    3.9708    0.9938   -0.7554 h   0  0  0  0  0  0  0  0  0  0  0  0
    2.6832    2.0705   -0.1507 h   0  0  0  0  0  0  0  0  0  0  0  0
    3.5247   -1.6699   -0.0152 h   0  0  0  0  0  0  0  0  0  0  0  0
   -1.6767    3.1004    0.0049 h   0  0  0  0  0  0  0  0  0  0  0  0
   -2.8576    2.1055   -0.8919 h   0  0  0  0  0  0  0  0  0  0  0  0
   -2.8712    2.0986    0.8766 h   0  0  0  0  0  0  0  0  0  0  0  0
   -1.2059   -3.1877    0.8866 h   0  0  0  0  0  0  0  0  0  0  0  0
   -1.2198   -3.1768   -0.9029 h   0  0  0  0  0  0  0  0  0  0  0  0
   -2.6053   -2.5426    0.0065 h   0  0  0  0  0  0  0  0  0  0  0  0
    1.3288   -2.9594   -0.0165 h   0  0  0  0  0  0  0  0  0  0  0  0
  1  2  1  0  0  0  0
  2  3  4  0  0  0  0
  3  4  4  0  0  0  0
  4  5  1  0  0  0  0
  2  6  1  0  0  0  0
  5  6  4  0  0  0  0
  6  7  1  0  0  0  0
  7  8  2  0  0  0  0
  7  9  1  0  0  0  0
  9 10  1  0  0  0  0
  9 11  1  0  0  0  0
 11 12  2  0  0  0  0
  5 13  4  0  0  0  0
 11 13  1  0  0  0  0
 13 14  1  0  0  0  0
  1 15  1  0  0  0  0
  1 16  1  0  0  0  0
  1 17  1  0  0  0  0
  3 18  1  0  0  0  0
 10 19  1  0  0  0  0
 10 20  1  0  0  0  0
 10 21  1  0  0  0  0
 14 22  1  0  0  0  0
 14 23  1  0  0  0  0
 14 24  1  0  0  0  0
  4 25  1  0  0  0  0
M  CHG  1   1   1
M  END
