 xtb: 6.6.1 (8d0f1dd)
          06052420003D

 25 25  0     0  0            999 V2000
    3.2988    1.2592    0.0540 C   0  0  0  0  0  0  0  0  0  0  0  0
    2.3680    0.1618    0.0376 N   0  0  0  0  0  0  0  0  0  0  0  0
    2.6687   -1.1322    0.0465 C   0  0  0  0  0  0  0  0  0  0  0  0
    1.5394   -1.8703    0.0318 N   0  0  0  0  0  0  0  0  0  0  0  0
    0.4722   -1.0059    0.0115 C   0  0  0  0  0  0  0  0  0  0  0  0
    0.9996    0.2804    0.0147 C   0  0  0  0  0  0  0  0  0  0  0  0
    0.1640    1.4603   -0.0005 C   0  0  0  0  0  0  0  0  0  0  0  0
    0.5541    2.6058    0.0110 O   0  0  0  0  0  0  0  0  0  0  0  0
   -1.1924    1.1176   -0.0333 N   0  0  0  0  0  0  0  0  0  0  0  0
   -2.1541    2.2154   -0.0675 C   0  0  0  0  0  0  0  0  0  0  0  0
   -1.7563   -0.1288   -0.0565 C   0  0  0  0  0  0  0  0  0  0  0  0
   -2.9351   -0.3284   -0.1111 O   0  0  0  0  0  0  0  0  0  0  0  0
   -0.8542   -1.2737   -0.0089 N   0  0  0  0  0  0  0  0  0  0  0  0
   -1.4017   -2.4985    0.0161 C   0  0  0  0  0  0  0  0  0  0  0  0
    3.8686    1.2575    0.9837 H   0  0  0  0  0  0  0  0  0  0  0  0
    3.9922    1.1794   -0.7829 H   0  0  0  0  0  0  0  0  0  0  0  0
    2.7409    2.1921   -0.0212 H   0  0  0  0  0  0  0  0  0  0  0  0
    3.6616   -1.5370    0.0627 H   0  0  0  0  0  0  0  0  0  0  0  0
   -1.5971    3.1487   -0.0520 H   0  0  0  0  0  0  0  0  0  0  0  0
   -2.7571    2.1494   -0.9720 H   0  0  0  0  0  0  0  0  0  0  0  0
   -2.8146    2.1548    0.7960 H   0  0  0  0  0  0  0  0  0  0  0  0
   -0.7871   -3.3748    0.0375 H   0  0  0  0  0  0  0  0  0  0  0  0
   -2.4726   -2.5594   -0.0052 H   0  0  0  0  0  0  0  0  0  0  0  0
   -3.9513   -4.7759    0.0089 H   0  0  0  0  0  0  0  0  0  0  0  0
    1.5060   -2.8792    0.0301 H   0  0  0  0  0  0  0  0  0  0  0  0
  1  2  1  0  0  0  0
  2  3  4  0  0  0  0
  3  4  4  0  0  0  0
  4  5  1  0  0  0  0
  2  6  1  0  0  0  0
  5  6  4  0  0  0  0
  6  7  1  0  0  0  0
  7  8  2  0  0  0  0
  7  9  1  0  0  0  0
  9 10  1  0  0  0  0
  9 11  1  0  0  0  0
 11 12  2  0  0  0  0
  5 13  1  0  0  0  0
 11 13  1  0  0  0  0
 13 14  4  0  0  0  0
  1 15  1  0  0  0  0
  1 16  1  0  0  0  0
  1 17  1  0  0  0  0
  3 18  1  0  0  0  0
 10 19  1  0  0  0  0
 10 20  1  0  0  0  0
 10 21  1  0  0  0  0
 14 22  1  0  0  0  0
 14 23  1  0  0  0  0
  4 25  1  0  0  0  0
M  CHG  1   1   1
M  END
