 xtb: 6.6.1 (8d0f1dd)
          04062411153D

 72 73  0     0  0            999 V2000
   -2.2703    3.2471    2.0886 N   0  0  0  0  0  0  0  0  0  0  0  0
   -2.0608    2.3641    1.2300 C   0  0  0  0  0  0  0  0  0  0  0  0
   -3.0050    2.0184    0.1114 C   0  0  0  0  0  0  0  0  0  0  0  0
   -3.5110    0.5968    0.2954 C   0  0  0  0  0  0  0  0  0  0  0  0
   -4.2091   -0.0313   -0.7384 C   0  0  0  0  0  0  0  0  0  0  0  0
   -4.7012   -1.3182   -0.6019 C   0  0  0  0  0  0  0  0  0  0  0  0
   -5.3870   -1.9951   -1.5483 O   0  0  0  0  0  0  0  0  0  0  0  0
   -5.7415   -1.3388   -2.7424 C   0  0  0  0  0  0  0  0  0  0  0  0
   -4.4879   -2.0240    0.6122 C   0  0  0  0  0  0  0  0  0  0  0  0
   -4.9875   -3.2770    0.6515 O   0  0  0  0  0  0  0  0  0  0  0  0
   -4.8817   -4.0169    1.8451 C   0  0  0  0  0  0  0  0  0  0  0  0
   -3.8058   -1.3911    1.6384 C   0  0  0  0  0  0  0  0  0  0  0  0
   -3.3262   -0.0961    1.4811 C   0  0  0  0  0  0  0  0  0  0  0  0
   -2.1701    2.1305   -1.1924 C   0  0  0  0  0  0  0  0  0  0  0  0
   -1.1989    0.9612   -1.4467 C   0  0  0  0  0  0  0  0  0  0  0  0
   -0.0358    0.9413   -0.5319 C   0  0  0  0  0  0  0  0  0  0  0  0
    0.4174   -0.1270    0.1105 N   0  0  0  0  0  0  0  0  0  0  0  0
    1.6294   -0.0562    0.9075 C   0  0  0  0  0  0  0  0  0  0  0  0
    2.7434   -0.8554    0.2969 C   0  0  0  0  0  0  0  0  0  0  0  0
    4.0452   -0.4946    0.2096 C   0  0  0  0  0  0  0  0  0  0  0  0
    4.5801    0.7531    0.6463 C   0  0  0  0  0  0  0  0  0  0  0  0
    5.8820    1.1018    0.4506 C   0  0  0  0  0  0  0  0  0  0  0  0
    6.8060    0.2527   -0.2136 C   0  0  0  0  0  0  0  0  0  0  0  0
    8.0953    0.5832   -0.4814 O   0  0  0  0  0  0  0  0  0  0  0  0
    8.5748    1.8563   -0.1165 C   0  0  0  0  0  0  0  0  0  0  0  0
    6.3912   -0.9931   -0.6428 C   0  0  0  0  0  0  0  0  0  0  0  0
    7.2947   -1.7538   -1.2808 O   0  0  0  0  0  0  0  0  0  0  0  0
    6.9572   -3.0469   -1.7237 C   0  0  0  0  0  0  0  0  0  0  0  0
    5.0142   -1.5032   -0.3637 C   0  0  0  0  0  0  0  0  0  0  0  0
   -0.2790   -1.3911    0.0841 C   0  0  0  0  0  0  0  0  0  0  0  0
   -4.2408    2.9632    0.0301 C   0  0  0  0  0  0  0  0  0  0  0  0
   -5.1232    2.8376    1.2700 C   0  0  0  0  0  0  0  0  0  0  0  0
   -3.8664    4.4263   -0.1897 C   0  0  0  0  0  0  0  0  0  0  0  0
   -4.3812    0.5019   -1.6587 H   0  0  0  0  0  0  0  0  0  0  0  0
   -6.3459   -0.4481   -2.5466 H   0  0  0  0  0  0  0  0  0  0  0  0
   -6.3329   -2.0580   -3.3056 H   0  0  0  0  0  0  0  0  0  0  0  0
   -4.8587   -1.0616   -3.3282 H   0  0  0  0  0  0  0  0  0  0  0  0
   -5.3798   -3.5101    2.6769 H   0  0  0  0  0  0  0  0  0  0  0  0
   -5.3821   -4.9628    1.6475 H   0  0  0  0  0  0  0  0  0  0  0  0
   -3.8361   -4.2086    2.1074 H   0  0  0  0  0  0  0  0  0  0  0  0
   -3.6495   -1.8930    2.5794 H   0  0  0  0  0  0  0  0  0  0  0  0
   -2.8257    0.3743    2.3133 H   0  0  0  0  0  0  0  0  0  0  0  0
   -2.8527    2.1867   -2.0399 H   0  0  0  0  0  0  0  0  0  0  0  0
   -1.6040    3.0624   -1.1645 H   0  0  0  0  0  0  0  0  0  0  0  0
   -1.7458    0.0208   -1.4197 H   0  0  0  0  0  0  0  0  0  0  0  0
   -0.8121    1.0964   -2.4650 H   0  0  0  0  0  0  0  0  0  0  0  0
   -1.1288    1.7701    1.1728 H   0  0  0  0  0  0  0  0  0  0  0  0
    0.5714    1.8327   -0.4792 H   0  0  0  0  0  0  0  0  0  0  0  0
    1.3973   -0.4517    1.9068 H   0  0  0  0  0  0  0  0  0  0  0  0
    1.9180    0.9885    1.0156 H   0  0  0  0  0  0  0  0  0  0  0  0
    4.5917   -1.9444   -1.2707 H   0  0  0  0  0  0  0  0  0  0  0  0
    2.4558   -1.8324   -0.0638 H   0  0  0  0  0  0  0  0  0  0  0  0
    3.9307    1.4606    1.1364 H   0  0  0  0  0  0  0  0  0  0  0  0
    6.2210    2.0644    0.7978 H   0  0  0  0  0  0  0  0  0  0  0  0
    8.5384    2.0090    0.9667 H   0  0  0  0  0  0  0  0  0  0  0  0
    8.0221    2.6558   -0.6202 H   0  0  0  0  0  0  0  0  0  0  0  0
    9.6125    1.8772   -0.4446 H   0  0  0  0  0  0  0  0  0  0  0  0
    7.8677   -3.4505   -2.1626 H   0  0  0  0  0  0  0  0  0  0  0  0
    6.6376   -3.6895   -0.8986 H   0  0  0  0  0  0  0  0  0  0  0  0
    6.1738   -3.0209   -2.4875 H   0  0  0  0  0  0  0  0  0  0  0  0
    5.1095   -2.3263    0.3614 H   0  0  0  0  0  0  0  0  0  0  0  0
   -0.2699   -1.8240   -0.9181 H   0  0  0  0  0  0  0  0  0  0  0  0
   -1.3172   -1.2636    0.4022 H   0  0  0  0  0  0  0  0  0  0  0  0
    0.2086   -2.0830    0.7657 H   0  0  0  0  0  0  0  0  0  0  0  0
   -4.8275    2.6296   -0.8337 H   0  0  0  0  0  0  0  0  0  0  0  0
   -4.5851    3.1830    2.1467 H   0  0  0  0  0  0  0  0  0  0  0  0
   -5.4346    1.8079    1.4286 H   0  0  0  0  0  0  0  0  0  0  0  0
   -6.0134    3.4487    1.1466 H   0  0  0  0  0  0  0  0  0  0  0  0
   -3.2540    4.7855    0.6314 H   0  0  0  0  0  0  0  0  0  0  0  0
   -3.3348    4.5736   -1.1260 H   0  0  0  0  0  0  0  0  0  0  0  0
   -4.7733    5.0243   -0.2242 H   0  0  0  0  0  0  0  0  0  0  0  0
   -1.5463    3.4154    2.7803 H   0  0  0  0  0  0  0  0  0  0  0  0
  1  2  2  0  0  0  0
  2  3  1  0  0  0  0
  3  4  1  0  0  0  0
  4  5  4  0  0  0  0
  5  6  4  0  0  0  0
  6  7  1  0  0  0  0
  7  8  1  0  0  0  0
  6  9  4  0  0  0  0
  9 10  1  0  0  0  0
 10 11  1  0  0  0  0
  9 12  4  0  0  0  0
  4 13  4  0  0  0  0
 12 13  4  0  0  0  0
  3 14  1  0  0  0  0
 14 15  1  0  0  0  0
 15 16  1  0  0  0  0
 16 17  4  0  0  0  0
 17 18  1  0  0  0  0
 18 19  1  0  0  0  0
 19 20  2  0  0  0  0
 20 21  1  0  0  0  0
 21 22  2  0  0  0  0
 22 23  4  0  0  0  0
 23 24  1  0  0  0  0
 24 25  1  0  0  0  0
 23 26  4  0  0  0  0
 26 27  1  0  0  0  0
 27 28  1  0  0  0  0
 20 29  1  0  0  0  0
 26 29  1  0  0  0  0
 17 30  1  0  0  0  0
  3 31  1  0  0  0  0
 31 32  1  0  0  0  0
 31 33  1  0  0  0  0
  5 34  1  0  0  0  0
  8 35  1  0  0  0  0
  8 36  1  0  0  0  0
  8 37  1  0  0  0  0
 11 38  1  0  0  0  0
 11 39  1  0  0  0  0
 11 40  1  0  0  0  0
 12 41  1  0  0  0  0
 13 42  1  0  0  0  0
 14 43  1  0  0  0  0
 14 44  1  0  0  0  0
 15 45  1  0  0  0  0
 15 46  1  0  0  0  0
  2 47  1  0  0  0  0
 16 48  1  0  0  0  0
 18 49  1  0  0  0  0
 18 50  1  0  0  0  0
 29 51  1  0  0  0  0
 19 52  1  0  0  0  0
 21 53  1  0  0  0  0
 22 54  1  0  0  0  0
 25 55  1  0  0  0  0
 25 56  1  0  0  0  0
 25 57  1  0  0  0  0
 28 58  1  0  0  0  0
 28 59  1  0  0  0  0
 28 60  1  0  0  0  0
 29 61  1  0  0  0  0
 30 62  1  0  0  0  0
 30 63  1  0  0  0  0
 30 64  1  0  0  0  0
 31 65  1  0  0  0  0
 32 66  1  0  0  0  0
 32 67  1  0  0  0  0
 32 68  1  0  0  0  0
 33 69  1  0  0  0  0
 33 70  1  0  0  0  0
 33 71  1  0  0  0  0
  1 72  1  0  0  0  0
M  CHG  1   1   1
M  END
