 xtb: 6.6.1 (8d0f1dd)
          04062411133D

 72 72  0     0  0            999 V2000
   -1.9139    2.9121    2.0774 N   0  0  0  0  0  0  0  0  0  0  0  0
   -2.0037    2.1672    1.0790 C   0  0  0  0  0  0  0  0  0  0  0  0
   -3.2574    1.9639    0.2737 C   0  0  0  0  0  0  0  0  0  0  0  0
   -3.6671    0.5004    0.3414 C   0  0  0  0  0  0  0  0  0  0  0  0
   -4.6367    0.0054   -0.5328 C   0  0  0  0  0  0  0  0  0  0  0  0
   -5.0673   -1.3093   -0.4645 C   0  0  0  0  0  0  0  0  0  0  0  0
   -6.0019   -1.8667   -1.2613 O   0  0  0  0  0  0  0  0  0  0  0  0
   -6.6794   -1.0639   -2.1991 C   0  0  0  0  0  0  0  0  0  0  0  0
   -4.5102   -2.1793    0.5118 C   0  0  0  0  0  0  0  0  0  0  0  0
   -4.9914   -3.4378    0.5065 O   0  0  0  0  0  0  0  0  0  0  0  0
   -4.5735   -4.3361    1.5078 C   0  0  0  0  0  0  0  0  0  0  0  0
   -3.5481   -1.6811    1.3763 C   0  0  0  0  0  0  0  0  0  0  0  0
   -3.1360   -0.3582    1.2922 C   0  0  0  0  0  0  0  0  0  0  0  0
   -2.8939    2.3561   -1.1825 C   0  0  0  0  0  0  0  0  0  0  0  0
   -1.9738    1.3551   -1.8979 C   0  0  0  0  0  0  0  0  0  0  0  0
   -0.5644    1.4209   -1.4432 C   0  0  0  0  0  0  0  0  0  0  0  0
    0.2498    0.3978   -1.3103 N   0  0  0  0  0  0  0  0  0  0  0  0
    1.7216    0.5968   -1.2812 C   0  0  0  0  0  0  0  0  0  0  0  0
    2.2564    0.3098   -2.6157 C   0  0  0  0  0  0  0  0  0  0  0  0
    4.8737   -0.8781   -0.2913 C   0  0  0  0  0  0  0  0  0  0  0  0
    5.2742    0.3335   -0.7690 C   0  0  0  0  0  0  0  0  0  0  0  0
    6.5762    0.7374   -0.4619 C   0  0  0  0  0  0  0  0  0  0  0  0
    7.4144   -0.0819    0.2815 C   0  0  0  0  0  0  0  0  0  0  0  0
    8.6843    0.2095    0.6305 O   0  0  0  0  0  0  0  0  0  0  0  0
    9.2433    1.4398    0.2325 C   0  0  0  0  0  0  0  0  0  0  0  0
    6.9521   -1.3507    0.7367 C   0  0  0  0  0  0  0  0  0  0  0  0
    7.8427   -2.0779    1.4326 O   0  0  0  0  0  0  0  0  0  0  0  0
    7.4947   -3.3691    1.8733 C   0  0  0  0  0  0  0  0  0  0  0  0
    5.6434   -1.7361    0.4400 C   0  0  0  0  0  0  0  0  0  0  0  0
   -0.2085   -0.9656   -1.4369 C   0  0  0  0  0  0  0  0  0  0  0  0
   -4.4610    2.8202    0.7684 C   0  0  0  0  0  0  0  0  0  0  0  0
   -4.8794    2.4288    2.1837 C   0  0  0  0  0  0  0  0  0  0  0  0
   -4.2006    4.3227    0.7083 C   0  0  0  0  0  0  0  0  0  0  0  0
   -5.0735    0.6621   -1.2666 H   0  0  0  0  0  0  0  0  0  0  0  0
   -7.1970   -0.2304   -1.7146 H   0  0  0  0  0  0  0  0  0  0  0  0
   -7.4122   -1.7183   -2.6673 H   0  0  0  0  0  0  0  0  0  0  0  0
   -5.9988   -0.6785   -2.9655 H   0  0  0  0  0  0  0  0  0  0  0  0
   -4.8022   -3.9552    2.5077 H   0  0  0  0  0  0  0  0  0  0  0  0
   -5.1361   -5.2512    1.3323 H   0  0  0  0  0  0  0  0  0  0  0  0
   -3.5023   -4.5503    1.4341 H   0  0  0  0  0  0  0  0  0  0  0  0
   -3.1193   -2.3132    2.1367 H   0  0  0  0  0  0  0  0  0  0  0  0
   -2.4100    0.0034    2.0039 H   0  0  0  0  0  0  0  0  0  0  0  0
   -3.8151    2.4452   -1.7574 H   0  0  0  0  0  0  0  0  0  0  0  0
   -2.4173    3.3371   -1.1738 H   0  0  0  0  0  0  0  0  0  0  0  0
   -2.3817    0.3488   -1.8079 H   0  0  0  0  0  0  0  0  0  0  0  0
   -1.9762    1.6186   -2.9640 H   0  0  0  0  0  0  0  0  0  0  0  0
   -1.1494    1.6103    0.6504 H   0  0  0  0  0  0  0  0  0  0  0  0
   -0.1262    2.4045   -1.3478 H   0  0  0  0  0  0  0  0  0  0  0  0
    2.1341   -0.0728   -0.5233 H   0  0  0  0  0  0  0  0  0  0  0  0
    1.8953    1.6329   -0.9817 H   0  0  0  0  0  0  0  0  0  0  0  0
    2.1072    1.0198   -3.4060 H   0  0  0  0  0  0  0  0  0  0  0  0
    2.5821   -0.6770   -2.8750 H   0  0  0  0  0  0  0  0  0  0  0  0
    4.6351    0.9634   -1.3680 H   0  0  0  0  0  0  0  0  0  0  0  0
    6.9174    1.6952   -0.8213 H   0  0  0  0  0  0  0  0  0  0  0  0
    8.6900    2.2849    0.6534 H   0  0  0  0  0  0  0  0  0  0  0  0
    9.2785    1.5301   -0.8574 H   0  0  0  0  0  0  0  0  0  0  0  0
   10.2574    1.4396    0.6274 H   0  0  0  0  0  0  0  0  0  0  0  0
    8.3828   -3.7559    2.3689 H   0  0  0  0  0  0  0  0  0  0  0  0
    6.6652   -3.3401    2.5869 H   0  0  0  0  0  0  0  0  0  0  0  0
    7.2339   -4.0216    1.0340 H   0  0  0  0  0  0  0  0  0  0  0  0
    5.2609   -2.6862    0.7790 H   0  0  0  0  0  0  0  0  0  0  0  0
   -0.4932   -1.2032   -2.4650 H   0  0  0  0  0  0  0  0  0  0  0  0
   -1.0696   -1.1304   -0.7854 H   0  0  0  0  0  0  0  0  0  0  0  0
    0.5951   -1.6367   -1.1373 H   0  0  0  0  0  0  0  0  0  0  0  0
   -5.2965    2.5925    0.0960 H   0  0  0  0  0  0  0  0  0  0  0  0
   -4.0818    2.6566    2.8837 H   0  0  0  0  0  0  0  0  0  0  0  0
   -5.1140    1.3690    2.2464 H   0  0  0  0  0  0  0  0  0  0  0  0
   -5.7630    2.9919    2.4717 H   0  0  0  0  0  0  0  0  0  0  0  0
   -3.3527    4.5824    1.3347 H   0  0  0  0  0  0  0  0  0  0  0  0
   -4.0172    4.6652   -0.3069 H   0  0  0  0  0  0  0  0  0  0  0  0
   -5.0745    4.8496    1.0828 H   0  0  0  0  0  0  0  0  0  0  0  0
   -1.0076    2.9965    2.5274 H   0  0  0  0  0  0  0  0  0  0  0  0
  1  2  2  0  0  0  0
  2  3  1  0  0  0  0
  3  4  1  0  0  0  0
  4  5  4  0  0  0  0
  5  6  4  0  0  0  0
  6  7  1  0  0  0  0
  7  8  1  0  0  0  0
  6  9  4  0  0  0  0
  9 10  1  0  0  0  0
 10 11  1  0  0  0  0
  9 12  4  0  0  0  0
  4 13  4  0  0  0  0
 12 13  4  0  0  0  0
  3 14  1  0  0  0  0
 14 15  1  0  0  0  0
 15 16  1  0  0  0  0
 16 17  4  0  0  0  0
 17 18  1  0  0  0  0
 18 19  1  0  0  0  0
 20 21  4  0  0  0  0
 21 22  4  0  0  0  0
 22 23  4  0  0  0  0
 23 24  1  0  0  0  0
 24 25  1  0  0  0  0
 23 26  4  0  0  0  0
 26 27  1  0  0  0  0
 27 28  1  0  0  0  0
 20 29  4  0  0  0  0
 26 29  4  0  0  0  0
 17 30  1  0  0  0  0
  3 31  1  0  0  0  0
 31 32  1  0  0  0  0
 31 33  1  0  0  0  0
  5 34  1  0  0  0  0
  8 35  1  0  0  0  0
  8 36  1  0  0  0  0
  8 37  1  0  0  0  0
 11 38  1  0  0  0  0
 11 39  1  0  0  0  0
 11 40  1  0  0  0  0
 12 41  1  0  0  0  0
 13 42  1  0  0  0  0
 14 43  1  0  0  0  0
 14 44  1  0  0  0  0
 15 45  1  0  0  0  0
 15 46  1  0  0  0  0
  2 47  1  0  0  0  0
 16 48  1  0  0  0  0
 18 49  1  0  0  0  0
 18 50  1  0  0  0  0
 19 51  1  0  0  0  0
 19 52  1  0  0  0  0
 21 53  1  0  0  0  0
 22 54  1  0  0  0  0
 25 55  1  0  0  0  0
 25 56  1  0  0  0  0
 25 57  1  0  0  0  0
 28 58  1  0  0  0  0
 28 59  1  0  0  0  0
 28 60  1  0  0  0  0
 29 61  1  0  0  0  0
 30 62  1  0  0  0  0
 30 63  1  0  0  0  0
 30 64  1  0  0  0  0
 31 65  1  0  0  0  0
 32 66  1  0  0  0  0
 32 67  1  0  0  0  0
 32 68  1  0  0  0  0
 33 69  1  0  0  0  0
 33 70  1  0  0  0  0
 33 71  1  0  0  0  0
  1 72  1  0  0  0  0
M  CHG  1   1   1
M  END
