 xtb: 6.6.1 (8d0f1dd)
          04062411163D

 72 73  0     0  0            999 V2000
   -1.9991    2.8002    2.2420 N   0  0  0  0  0  0  0  0  0  0  0  0
   -1.8841    2.0998    1.2116 C   0  0  0  0  0  0  0  0  0  0  0  0
   -2.9658    1.9306    0.1772 C   0  0  0  0  0  0  0  0  0  0  0  0
   -3.4642    0.4957    0.1868 C   0  0  0  0  0  0  0  0  0  0  0  0
   -4.3319    0.0463   -0.8069 C   0  0  0  0  0  0  0  0  0  0  0  0
   -4.8510   -1.2331   -0.7524 C   0  0  0  0  0  0  0  0  0  0  0  0
   -5.7816   -1.6917   -1.7329 O   0  0  0  0  0  0  0  0  0  0  0  0
   -7.1913   -1.2436   -1.4388 C   0  0  0  0  0  0  0  0  0  0  0  0
   -4.5370   -2.1266    0.2829 C   0  0  0  0  0  0  0  0  0  0  0  0
   -5.1228   -3.3399    0.2235 O   0  0  0  0  0  0  0  0  0  0  0  0
   -4.9037   -4.2555    1.2764 C   0  0  0  0  0  0  0  0  0  0  0  0
   -3.6557   -1.6768    1.2630 C   0  0  0  0  0  0  0  0  0  0  0  0
   -3.1413   -0.3894    1.2104 C   0  0  0  0  0  0  0  0  0  0  0  0
   -2.3107    2.2666   -1.1872 C   0  0  0  0  0  0  0  0  0  0  0  0
   -1.3290    1.2036   -1.7121 C   0  0  0  0  0  0  0  0  0  0  0  0
   -0.0321    1.1857   -0.9953 C   0  0  0  0  0  0  0  0  0  0  0  0
    0.6235    0.0849   -0.6089 N   0  0  0  0  0  0  0  0  0  0  0  0
    2.0061    0.1647   -0.2037 C   0  0  0  0  0  0  0  0  0  0  0  0
    2.9623   -0.2244   -1.3483 C   0  0  0  0  0  0  0  0  0  0  0  0
    4.3885   -0.0575   -0.9061 C   0  0  0  0  0  0  0  0  0  0  0  0
    5.0472    1.1467   -1.0834 C   0  0  0  0  0  0  0  0  0  0  0  0
    6.3560    1.3094   -0.6543 C   0  0  0  0  0  0  0  0  0  0  0  0
    7.0296    0.2692   -0.0325 C   0  0  0  0  0  0  0  0  0  0  0  0
    8.2999    0.3137    0.4185 O   0  0  0  0  0  0  0  0  0  0  0  0
    9.0517    1.4893    0.2269 C   0  0  0  0  0  0  0  0  0  0  0  0
    6.3589   -0.9679    0.1616 C   0  0  0  0  0  0  0  0  0  0  0  0
    7.0871   -1.9266    0.7748 O   0  0  0  0  0  0  0  0  0  0  0  0
    6.5139   -3.1941    0.9830 C   0  0  0  0  0  0  0  0  0  0  0  0
    5.0522   -1.1078   -0.2751 C   0  0  0  0  0  0  0  0  0  0  0  0
    0.0425   -1.2292   -0.7264 C   0  0  0  0  0  0  0  0  0  0  0  0
   -4.1999    2.8552    0.4115 C   0  0  0  0  0  0  0  0  0  0  0  0
   -4.9326    2.4995    1.7035 C   0  0  0  0  0  0  0  0  0  0  0  0
   -3.8456    4.3396    0.4166 C   0  0  0  0  0  0  0  0  0  0  0  0
   -4.6338    0.6956   -1.6141 H   0  0  0  0  0  0  0  0  0  0  0  0
   -7.4512   -1.5825   -0.4454 H   0  0  0  0  0  0  0  0  0  0  0  0
   -7.8092   -1.6646   -2.2217 H   0  0  0  0  0  0  0  0  0  0  0  0
   -5.5743   -1.2894   -2.5952 H   0  0  0  0  0  0  0  0  0  0  0  0
   -5.2393   -3.8486    2.2337 H   0  0  0  0  0  0  0  0  0  0  0  0
   -5.4989   -5.1314    1.0269 H   0  0  0  0  0  0  0  0  0  0  0  0
   -3.8500   -4.5398    1.3441 H   0  0  0  0  0  0  0  0  0  0  0  0
   -3.3834   -2.3180    2.0848 H   0  0  0  0  0  0  0  0  0  0  0  0
   -2.4944   -0.0648    2.0102 H   0  0  0  0  0  0  0  0  0  0  0  0
   -3.0969    2.4029   -1.9298 H   0  0  0  0  0  0  0  0  0  0  0  0
   -1.7822    3.2155   -1.0935 H   0  0  0  0  0  0  0  0  0  0  0  0
   -1.8040    0.2237   -1.6993 H   0  0  0  0  0  0  0  0  0  0  0  0
   -1.1233    1.4589   -2.7607 H   0  0  0  0  0  0  0  0  0  0  0  0
   -0.9575    1.5685    0.9256 H   0  0  0  0  0  0  0  0  0  0  0  0
    0.5053    2.1171   -0.9106 H   0  0  0  0  0  0  0  0  0  0  0  0
    2.1702   -0.5000    0.6488 H   0  0  0  0  0  0  0  0  0  0  0  0
    2.2303    1.1855    0.1120 H   0  0  0  0  0  0  0  0  0  0  0  0
    2.7597    0.4192   -2.2061 H   0  0  0  0  0  0  0  0  0  0  0  0
    2.7780   -1.2591   -1.6406 H   0  0  0  0  0  0  0  0  0  0  0  0
    4.5478    1.9696   -1.5720 H   0  0  0  0  0  0  0  0  0  0  0  0
    6.8452    2.2561   -0.8143 H   0  0  0  0  0  0  0  0  0  0  0  0
    8.6112    2.3388    0.7580 H   0  0  0  0  0  0  0  0  0  0  0  0
    9.1499    1.7333   -0.8353 H   0  0  0  0  0  0  0  0  0  0  0  0
   10.0357    1.2771    0.6406 H   0  0  0  0  0  0  0  0  0  0  0  0
    7.2862   -3.7880    1.4681 H   0  0  0  0  0  0  0  0  0  0  0  0
    5.6383   -3.1371    1.6381 H   0  0  0  0  0  0  0  0  0  0  0  0
    6.2336   -3.6691    0.0373 H   0  0  0  0  0  0  0  0  0  0  0  0
    4.5368   -2.0463   -0.1419 H   0  0  0  0  0  0  0  0  0  0  0  0
   -0.0449   -1.5371   -1.7718 H   0  0  0  0  0  0  0  0  0  0  0  0
   -0.9496   -1.2484   -0.2692 H   0  0  0  0  0  0  0  0  0  0  0  0
    0.6745   -1.9458   -0.2075 H   0  0  0  0  0  0  0  0  0  0  0  0
   -4.8864    2.6747   -0.4238 H   0  0  0  0  0  0  0  0  0  0  0  0
   -4.2878    2.6790    2.5572 H   0  0  0  0  0  0  0  0  0  0  0  0
   -5.2469    1.4587    1.7080 H   0  0  0  0  0  0  0  0  0  0  0  0
   -5.8182    3.1216    1.7999 H   0  0  0  0  0  0  0  0  0  0  0  0
   -3.1484    4.5573    1.2191 H   0  0  0  0  0  0  0  0  0  0  0  0
   -3.4169    4.6591   -0.5294 H   0  0  0  0  0  0  0  0  0  0  0  0
   -4.7499    4.9188    0.5839 H   0  0  0  0  0  0  0  0  0  0  0  0
   -1.1890    2.8664    2.8511 H   0  0  0  0  0  0  0  0  0  0  0  0
  1  2  2  0  0  0  0
  2  3  1  0  0  0  0
  3  4  1  0  0  0  0
  4  5  4  0  0  0  0
  5  6  4  0  0  0  0
  6  7  1  0  0  0  0
  7  8  1  0  0  0  0
  6  9  4  0  0  0  0
  9 10  1  0  0  0  0
 10 11  1  0  0  0  0
  9 12  4  0  0  0  0
  4 13  4  0  0  0  0
 12 13  4  0  0  0  0
  3 14  1  0  0  0  0
 14 15  1  0  0  0  0
 15 16  1  0  0  0  0
 16 17  4  0  0  0  0
 17 18  1  0  0  0  0
 18 19  1  0  0  0  0
 19 20  1  0  0  0  0
 20 21  4  0  0  0  0
 21 22  4  0  0  0  0
 22 23  4  0  0  0  0
 23 24  1  0  0  0  0
 24 25  1  0  0  0  0
 23 26  4  0  0  0  0
 26 27  1  0  0  0  0
 27 28  1  0  0  0  0
 20 29  4  0  0  0  0
 26 29  4  0  0  0  0
 17 30  1  0  0  0  0
  3 31  1  0  0  0  0
 31 32  1  0  0  0  0
 31 33  1  0  0  0  0
  5 34  1  0  0  0  0
  8 35  1  0  0  0  0
  8 36  1  0  0  0  0
  7 37  1  0  0  0  0
 11 38  1  0  0  0  0
 11 39  1  0  0  0  0
 11 40  1  0  0  0  0
 12 41  1  0  0  0  0
 13 42  1  0  0  0  0
 14 43  1  0  0  0  0
 14 44  1  0  0  0  0
 15 45  1  0  0  0  0
 15 46  1  0  0  0  0
  2 47  1  0  0  0  0
 16 48  1  0  0  0  0
 18 49  1  0  0  0  0
 18 50  1  0  0  0  0
 19 51  1  0  0  0  0
 19 52  1  0  0  0  0
 21 53  1  0  0  0  0
 22 54  1  0  0  0  0
 25 55  1  0  0  0  0
 25 56  1  0  0  0  0
 25 57  1  0  0  0  0
 28 58  1  0  0  0  0
 28 59  1  0  0  0  0
 28 60  1  0  0  0  0
 29 61  1  0  0  0  0
 30 62  1  0  0  0  0
 30 63  1  0  0  0  0
 30 64  1  0  0  0  0
 31 65  1  0  0  0  0
 32 66  1  0  0  0  0
 32 67  1  0  0  0  0
 32 68  1  0  0  0  0
 33 69  1  0  0  0  0
 33 70  1  0  0  0  0
 33 71  1  0  0  0  0
  1 72  1  0  0  0  0
M  CHG  1   1   1
M  END
