 xtb: 6.6.1 (8d0f1dd)
          06052419583D

 25 26  0     0  0            999 V2000
    3.2225    1.1819    0.6503 C   0  0  0  0  0  0  0  0  0  0  0  0
    2.3898    0.2362    0.0115 N   0  0  0  0  0  0  0  0  0  0  0  0
    2.6937   -0.9766   -0.7066 C   0  0  0  0  0  0  0  0  0  0  0  0
    2.0027   -2.0293   -0.0949 N   0  0  0  0  0  0  0  0  0  0  0  0
    1.1485   -1.1663   -0.8959 C   0  0  0  0  0  0  0  0  0  0  0  0
    1.0720    0.1547   -0.2270 C   0  0  0  0  0  0  0  0  0  0  0  0
    0.1207    1.2318   -0.0507 C   0  0  0  0  0  0  0  0  0  0  0  0
    0.5249    2.3622    0.1953 O   0  0  0  0  0  0  0  0  0  0  0  0
   -1.2270    0.9795   -0.2079 N   0  0  0  0  0  0  0  0  0  0  0  0
   -2.1153    2.1131   -0.3212 C   0  0  0  0  0  0  0  0  0  0  0  0
   -1.8639   -0.2789   -0.0916 C   0  0  0  0  0  0  0  0  0  0  0  0
   -3.0595   -0.3575   -0.3280 O   0  0  0  0  0  0  0  0  0  0  0  0
   -1.0866   -1.2748    0.3162 N   0  0  0  0  0  0  0  0  0  0  0  0
   -1.5749   -2.5626    0.5794 C   0  0  0  0  0  0  0  0  0  0  0  0
    3.6963    0.7373    1.5320 H   0  0  0  0  0  0  0  0  0  0  0  0
    4.0200    1.4921   -0.0315 H   0  0  0  0  0  0  0  0  0  0  0  0
    2.6301    2.0532    0.9372 H   0  0  0  0  0  0  0  0  0  0  0  0
    0.5411   -1.5406   -1.6979 H   0  0  0  0  0  0  0  0  0  0  0  0
   -1.5268    3.0144   -0.4893 H   0  0  0  0  0  0  0  0  0  0  0  0
   -2.8131    1.9420   -1.1449 H   0  0  0  0  0  0  0  0  0  0  0  0
   -2.7068    2.2306    0.5921 H   0  0  0  0  0  0  0  0  0  0  0  0
   -0.9743   -3.0038    1.3795 H   0  0  0  0  0  0  0  0  0  0  0  0
   -1.4887   -3.2059   -0.3066 H   0  0  0  0  0  0  0  0  0  0  0  0
   -2.6328   -2.5476    0.8773 H   0  0  0  0  0  0  0  0  0  0  0  0
    2.1677   -2.9669   -0.4457 H   0  0  0  0  0  0  0  0  0  0  0  0
  1  2  1  0  0  0  0
  2  3  1  0  0  0  0
  3  4  1  0  0  0  0
  3  5  1  0  0  0  0
  4  5  1  0  0  0  0
  2  6  4  0  0  0  0
  5  6  1  0  0  0  0
  6  7  1  0  0  0  0
  7  8  2  0  0  0  0
  7  9  1  0  0  0  0
  9 10  1  0  0  0  0
  9 11  1  0  0  0  0
 11 12  2  0  0  0  0
 11 13  4  0  0  0  0
 13 14  1  0  0  0  0
  1 15  1  0  0  0  0
  1 16  1  0  0  0  0
  1 17  1  0  0  0  0
  5 18  1  0  0  0  0
 10 19  1  0  0  0  0
 10 20  1  0  0  0  0
 10 21  1  0  0  0  0
 14 22  1  0  0  0  0
 14 23  1  0  0  0  0
 14 24  1  0  0  0  0
  4 25  1  0  0  0  0
M  CHG  1   1   1
M  END
