          22
 
N              2.05630704        0.24887991       -0.03772333
C              2.42530968       -1.02520690       -0.02723673
N              1.32191045       -1.80428954       -0.01150601
C              0.22234878       -0.99096494       -0.01174482
C              0.68648946        0.31363004       -0.02943143
C             -0.21942771        1.45295254       -0.01928444
O              0.11675790        2.61012178       -0.01253387
N             -1.54739186        1.02915708       -0.01544282
C             -2.57683326        2.06206904       -0.01166588
C             -2.03367652       -0.26501804        0.00579394
O             -3.20522746       -0.51357806        0.02500087
N             -1.07941113       -1.31231274        0.00353943
C             -1.54671189       -2.68477742        0.02773143
H              2.67425512        1.05259445       -0.04747241
H              3.43675356       -1.38162480       -0.03043015
H             -2.08332752        3.03048098       -0.01164948
H             -3.20657808        1.95699852       -0.89443185
H             -3.20293062        1.95530304        0.87328363
H             -1.19008926       -3.19579209        0.92230808
H             -1.22143001       -3.21647149       -0.86677485
H             -2.63584923       -2.65557939        0.04650999
H              1.32135408       -2.81488228        0.00127486
