          68
 
N             -1.50287404        1.61141699        2.52396992
C             -1.56877032        2.05454473        1.33851062
C             -2.75332546        1.97956011        0.48777588
C             -3.80996456        0.76996090        0.69181902
C             -4.42516805        0.22812253       -0.51036738
C             -4.66102521       -1.10689508       -0.67662439
O             -5.22769378       -1.67200456       -1.76690802
C             -5.68455579       -0.84123889       -2.80862345
C             -4.32093164       -2.03292767        0.36108910
O             -4.59894517       -3.31993693        0.10326424
C             -4.43448815       -4.28244153        1.12062446
C             -3.76855254       -1.53349196        1.54638969
C             -3.52819237       -0.19992152        1.72559213
C             -2.47635597        2.40435611       -0.94173569
C             -1.64896890        1.35131541       -1.71650489
C             -0.25830344        1.25708124       -1.22536379
N              0.28745377        0.20571632       -0.62377289
C              1.68891674        0.22402698       -0.27795798
C              2.56972497       -0.36977780       -1.39515806
C              4.01791757       -0.27566481       -1.00343333
C              4.71988141        0.90482811       -1.18492330
C              6.04283562        1.01357324       -0.78497580
C              6.69182877       -0.05999944       -0.19292490
O              7.96783847       -0.06664138        0.23868097
C              8.74504790        1.10044121        0.10181391
C              5.98283840       -1.27857752       -0.01077433
O              6.69185814       -2.27482233        0.55879873
C              6.08692200       -3.53237945        0.74081052
C              4.65888957       -1.36126510       -0.41179250
C             -0.44757344       -1.01544079       -0.39683121
C             -4.12421385        2.21765148        1.05748750
C             -4.34216687        2.63803918        2.48287621
H             -4.75111126        0.92246191       -1.26604005
H             -6.45086487       -0.14303281       -2.45921293
H             -6.12254114       -1.51117480       -3.54583072
H             -4.86286593       -0.28342998       -3.27249299
H             -5.05384730       -4.04955656        1.99308024
H             -4.76234494       -5.22548800        0.68471855
H             -3.38649568       -4.36844044        1.42774161
H             -3.54438204       -2.21184908        2.35353877
H             -3.09986386        0.14967747        2.64708341
H             -3.40646963        2.58129910       -1.47822693
H             -1.93294194        3.35221111       -0.92745940
H             -2.16226711        0.39242262       -1.66030596
H             -1.61929420        1.66931726       -2.76408318
H             -0.72372999        2.55457741        0.84394209
H              0.38399683        2.11117910       -1.37347349
H              1.83663832       -0.34430648        0.64311506
H              2.00266843        1.25408075       -0.09515563
H              2.39355967        0.19223695       -2.31418831
H              2.29033090       -1.40967465       -1.56768801
H              4.24142688        1.75215393       -1.65243904
H              6.56385206        1.94336343       -0.94416749
H              8.30924243        1.93912307        0.65352506
H              8.86917135        1.37869377       -0.94909520
H              9.71651645        0.85534749        0.52688590
H              6.85469490       -4.16455677        1.18260173
H              5.23246963       -3.47255264        1.42277354
H              5.76612687       -3.96507063       -0.21198256
H              4.11242438       -2.28174843       -0.27839558
H             -0.77636349       -1.46172556       -1.33848450
H             -1.32458451       -0.82505718        0.22728717
H              0.19210800       -1.72885028        0.11587585
H             -4.81146889        2.69599161        0.36723643
H             -3.52665682        2.31206716        3.11926767
H             -5.27363664        2.22029953        2.85840977
H             -4.41074589        3.72268632        2.52899374
H             -0.62348389        1.76633785        3.00643738
