 xtb: 6.6.1 (8d0f1dd)
          04062411123D

 72 72  0     0  0            999 V2000
   -1.8464    2.7923    2.2581 N   0  0  0  0  0  0  0  0  0  0  0  0
   -1.8025    2.1281    1.2014 C   0  0  0  0  0  0  0  0  0  0  0  0
   -2.9640    1.9170    0.2687 C   0  0  0  0  0  0  0  0  0  0  0  0
   -3.4422    0.4750    0.3654 C   0  0  0  0  0  0  0  0  0  0  0  0
   -4.3930   -0.0000   -0.5324 C   0  0  0  0  0  0  0  0  0  0  0  0
   -4.8538   -1.3109   -0.4689 C   0  0  0  0  0  0  0  0  0  0  0  0
   -5.7765   -1.8455   -1.3127 O   0  0  0  0  0  0  0  0  0  0  0  0
   -6.5864   -1.1461   -2.0631 C   0  0  0  0  0  0  0  0  0  0  0  0
   -4.3461   -2.1987    0.5166 C   0  0  0  0  0  0  0  0  0  0  0  0
   -4.8472   -3.4462    0.4948 O   0  0  0  0  0  0  0  0  0  0  0  0
   -4.4465   -4.3659    1.4872 C   0  0  0  0  0  0  0  0  0  0  0  0
   -3.4058   -1.7124    1.4137 C   0  0  0  0  0  0  0  0  0  0  0  0
   -2.9677   -0.3960    1.3394 C   0  0  0  0  0  0  0  0  0  0  0  0
   -2.4268    2.1945   -1.1597 C   0  0  0  0  0  0  0  0  0  0  0  0
   -1.4884    1.1063   -1.7136 C   0  0  0  0  0  0  0  0  0  0  0  0
   -0.1515    1.0982   -1.0776 C   0  0  0  0  0  0  0  0  0  0  0  0
    0.5061    0.0157   -0.6737 N   0  0  0  0  0  0  0  0  0  0  0  0
    1.8853    0.1133   -0.2580 C   0  0  0  0  0  0  0  0  0  0  0  0
    2.8529   -0.3391   -1.3681 C   0  0  0  0  0  0  0  0  0  0  0  0
    4.2724   -0.1361   -0.9181 C   0  0  0  0  0  0  0  0  0  0  0  0
    4.9129    1.0737   -1.1308 C   0  0  0  0  0  0  0  0  0  0  0  0
    6.2124    1.2756   -0.6924 C   0  0  0  0  0  0  0  0  0  0  0  0
    6.8972    0.2697   -0.0258 C   0  0  0  0  0  0  0  0  0  0  0  0
    8.1574    0.3527    0.4389 O   0  0  0  0  0  0  0  0  0  0  0  0
    8.8899    1.5386    0.2314 C   0  0  0  0  0  0  0  0  0  0  0  0
    6.2457   -0.9740    0.2027 C   0  0  0  0  0  0  0  0  0  0  0  0
    6.9823   -1.8955    0.8547 O   0  0  0  0  0  0  0  0  0  0  0  0
    6.4355   -3.1696    1.0973 C   0  0  0  0  0  0  0  0  0  0  0  0
    4.9456   -1.1518   -0.2434 C   0  0  0  0  0  0  0  0  0  0  0  0
   -0.0917   -1.2974   -0.6943 C   0  0  0  0  0  0  0  0  0  0  0  0
   -4.1707    2.8555    0.5721 C   0  0  0  0  0  0  0  0  0  0  0  0
   -4.8008    2.5349    1.9255 C   0  0  0  0  0  0  0  0  0  0  0  0
   -3.8083    4.3367    0.5086 C   0  0  0  0  0  0  0  0  0  0  0  0
   -4.7742    0.6470   -1.3058 H   0  0  0  0  0  0  0  0  0  0  0  0
   -6.6426   -0.0718   -2.0292 H   0  0  0  0  0  0  0  0  0  0  0  0
   -7.2235   -1.7205   -2.7117 H   0  0  0  0  0  0  0  0  0  0  0  0
   -7.2614   -0.4334   -4.9153 H   0  0  0  0  0  0  0  0  0  0  0  0
   -4.6874   -4.0009    2.4893 H   0  0  0  0  0  0  0  0  0  0  0  0
   -5.0114   -5.2741    1.2872 H   0  0  0  0  0  0  0  0  0  0  0  0
   -3.3761   -4.5828    1.4210 H   0  0  0  0  0  0  0  0  0  0  0  0
   -3.0154   -2.3511    2.1894 H   0  0  0  0  0  0  0  0  0  0  0  0
   -2.2566   -0.0469    2.0723 H   0  0  0  0  0  0  0  0  0  0  0  0
   -3.2723    2.2874   -1.8403 H   0  0  0  0  0  0  0  0  0  0  0  0
   -1.9003    3.1496   -1.1591 H   0  0  0  0  0  0  0  0  0  0  0  0
   -1.9731    0.1339   -1.6465 H   0  0  0  0  0  0  0  0  0  0  0  0
   -1.3426    1.3331   -2.7776 H   0  0  0  0  0  0  0  0  0  0  0  0
   -0.8815    1.6499    0.8118 H   0  0  0  0  0  0  0  0  0  0  0  0
    0.4036    2.0248   -1.0796 H   0  0  0  0  0  0  0  0  0  0  0  0
    2.0372   -0.5047    0.6311 H   0  0  0  0  0  0  0  0  0  0  0  0
    2.1107    1.1489    0.0048 H   0  0  0  0  0  0  0  0  0  0  0  0
    2.6583    0.2520   -2.2645 H   0  0  0  0  0  0  0  0  0  0  0  0
    2.6772   -1.3898   -1.6016 H   0  0  0  0  0  0  0  0  0  0  0  0
    4.4053    1.8692   -1.6549 H   0  0  0  0  0  0  0  0  0  0  0  0
    6.6872    2.2244   -0.8804 H   0  0  0  0  0  0  0  0  0  0  0  0
    8.4187    2.3926    0.7274 H   0  0  0  0  0  0  0  0  0  0  0  0
    9.0086    1.7542   -0.8346 H   0  0  0  0  0  0  0  0  0  0  0  0
    9.8675    1.3588    0.6743 H   0  0  0  0  0  0  0  0  0  0  0  0
    7.2175   -3.7313    1.6045 H   0  0  0  0  0  0  0  0  0  0  0  0
    5.5548   -3.1117    1.7453 H   0  0  0  0  0  0  0  0  0  0  0  0
    6.1722   -3.6778    0.1645 H   0  0  0  0  0  0  0  0  0  0  0  0
    4.4453   -2.0939   -0.0823 H   0  0  0  0  0  0  0  0  0  0  0  0
   -0.2527   -1.6432   -1.7177 H   0  0  0  0  0  0  0  0  0  0  0  0
   -1.0513   -1.2877   -0.1715 H   0  0  0  0  0  0  0  0  0  0  0  0
    0.5689   -1.9991   -0.1915 H   0  0  0  0  0  0  0  0  0  0  0  0
   -4.9199    2.6604   -0.2036 H   0  0  0  0  0  0  0  0  0  0  0  0
   -4.0900    2.7298    2.7218 H   0  0  0  0  0  0  0  0  0  0  0  0
   -5.1141    1.4950    1.9780 H   0  0  0  0  0  0  0  0  0  0  0  0
   -5.6741    3.1633    2.0782 H   0  0  0  0  0  0  0  0  0  0  0  0
   -3.0417    4.5725    1.2403 H   0  0  0  0  0  0  0  0  0  0  0  0
   -3.4641    4.6287   -0.4800 H   0  0  0  0  0  0  0  0  0  0  0  0
   -4.6901    4.9283    0.7404 H   0  0  0  0  0  0  0  0  0  0  0  0
   -0.9894    2.8884    2.7938 H   0  0  0  0  0  0  0  0  0  0  0  0
  1  2  2  0  0  0  0
  2  3  1  0  0  0  0
  3  4  1  0  0  0  0
  4  5  4  0  0  0  0
  5  6  4  0  0  0  0
  6  7  1  0  0  0  0
  7  8  4  0  0  0  0
  6  9  4  0  0  0  0
  9 10  1  0  0  0  0
 10 11  1  0  0  0  0
  9 12  4  0  0  0  0
  4 13  4  0  0  0  0
 12 13  4  0  0  0  0
  3 14  1  0  0  0  0
 14 15  1  0  0  0  0
 15 16  1  0  0  0  0
 16 17  4  0  0  0  0
 17 18  1  0  0  0  0
 18 19  1  0  0  0  0
 19 20  1  0  0  0  0
 20 21  4  0  0  0  0
 21 22  4  0  0  0  0
 22 23  4  0  0  0  0
 23 24  1  0  0  0  0
 24 25  1  0  0  0  0
 23 26  4  0  0  0  0
 26 27  1  0  0  0  0
 27 28  1  0  0  0  0
 20 29  4  0  0  0  0
 26 29  4  0  0  0  0
 17 30  1  0  0  0  0
  3 31  1  0  0  0  0
 31 32  1  0  0  0  0
 31 33  1  0  0  0  0
  5 34  1  0  0  0  0
  8 35  1  0  0  0  0
  8 36  1  0  0  0  0
 11 38  1  0  0  0  0
 11 39  1  0  0  0  0
 11 40  1  0  0  0  0
 12 41  1  0  0  0  0
 13 42  1  0  0  0  0
 14 43  1  0  0  0  0
 14 44  1  0  0  0  0
 15 45  1  0  0  0  0
 15 46  1  0  0  0  0
  2 47  1  0  0  0  0
 16 48  1  0  0  0  0
 18 49  1  0  0  0  0
 18 50  1  0  0  0  0
 19 51  1  0  0  0  0
 19 52  1  0  0  0  0
 21 53  1  0  0  0  0
 22 54  1  0  0  0  0
 25 55  1  0  0  0  0
 25 56  1  0  0  0  0
 25 57  1  0  0  0  0
 28 58  1  0  0  0  0
 28 59  1  0  0  0  0
 28 60  1  0  0  0  0
 29 61  1  0  0  0  0
 30 62  1  0  0  0  0
 30 63  1  0  0  0  0
 30 64  1  0  0  0  0
 31 65  1  0  0  0  0
 32 66  1  0  0  0  0
 32 67  1  0  0  0  0
 32 68  1  0  0  0  0
 33 69  1  0  0  0  0
 33 70  1  0  0  0  0
 33 71  1  0  0  0  0
  1 72  1  0  0  0  0
M  CHG  1   1   1
M  END
