 xtb: 6.6.1 (8d0f1dd)
          04062411133D

 72 73  0     0  0            999 V2000
   -1.5415    3.5479    1.3448 N   0  0  0  0  0  0  0  0  0  0  0  0
   -1.8868    2.4869    0.6134 C   0  0  0  0  0  0  0  0  0  0  0  0
   -3.4378    2.1493    0.4274 C   0  0  0  0  0  0  0  0  0  0  0  0
   -3.7266    0.6881    0.3666 C   0  0  0  0  0  0  0  0  0  0  0  0
   -4.5089    0.2158   -0.6881 C   0  0  0  0  0  0  0  0  0  0  0  0
   -4.8297   -1.1277   -0.7977 C   0  0  0  0  0  0  0  0  0  0  0  0
   -5.5825   -1.6732   -1.7706 O   0  0  0  0  0  0  0  0  0  0  0  0
   -6.1722   -0.8352   -2.7382 C   0  0  0  0  0  0  0  0  0  0  0  0
   -4.3400   -2.0433    0.1772 C   0  0  0  0  0  0  0  0  0  0  0  0
   -4.6868   -3.3291   -0.0157 O   0  0  0  0  0  0  0  0  0  0  0  0
   -4.2935   -4.2995    0.9270 C   0  0  0  0  0  0  0  0  0  0  0  0
   -3.5627   -1.5613    1.2210 C   0  0  0  0  0  0  0  0  0  0  0  0
   -3.2622   -0.2095    1.3171 C   0  0  0  0  0  0  0  0  0  0  0  0
   -2.6540    2.7075   -0.6932 C   0  0  0  0  0  0  0  0  0  0  0  0
   -1.2354    0.1702   -2.4255 C   0  0  0  0  0  0  0  0  0  0  0  0
   -0.0755    0.4304   -1.8065 C   0  0  0  0  0  0  0  0  0  0  0  0
    0.4545   -0.2475   -0.7521 N   0  0  0  0  0  0  0  0  0  0  0  0
    1.8161    0.0129   -0.3665 C   0  0  0  0  0  0  0  0  0  0  0  0
    2.8352   -0.7498   -1.2422 C   0  0  0  0  0  0  0  0  0  0  0  0
    4.2388   -0.4163   -0.8330 C   0  0  0  0  0  0  0  0  0  0  0  0
    4.7952    0.8113   -1.1719 C   0  0  0  0  0  0  0  0  0  0  0  0
    6.0793    1.1450   -0.7772 C   0  0  0  0  0  0  0  0  0  0  0  0
    6.8448    0.2539   -0.0349 C   0  0  0  0  0  0  0  0  0  0  0  0
    8.0967    0.4684    0.4011 O   0  0  0  0  0  0  0  0  0  0  0  0
    8.7333    1.6908    0.1057 C   0  0  0  0  0  0  0  0  0  0  0  0
    6.2885   -1.0118    0.3094 C   0  0  0  0  0  0  0  0  0  0  0  0
    7.1015   -1.8197    1.0125 O   0  0  0  0  0  0  0  0  0  0  0  0
    6.6651   -3.1126    1.3610 C   0  0  0  0  0  0  0  0  0  0  0  0
    4.9942   -1.3170   -0.0885 C   0  0  0  0  0  0  0  0  0  0  0  0
   -0.1582   -1.4715   -0.3025 C   0  0  0  0  0  0  0  0  0  0  0  0
   -4.4634    2.9574    1.2083 C   0  0  0  0  0  0  0  0  0  0  0  0
   -4.3416    2.6759    2.7062 C   0  0  0  0  0  0  0  0  0  0  0  0
   -4.3872    4.4570    0.9515 C   0  0  0  0  0  0  0  0  0  0  0  0
   -4.8702    0.9236   -1.4168 H   0  0  0  0  0  0  0  0  0  0  0  0
   -6.8313   -0.0941   -2.2766 H   0  0  0  0  0  0  0  0  0  0  0  0
   -6.7596   -1.4935   -3.3753 H   0  0  0  0  0  0  0  0  0  0  0  0
   -5.4154   -0.3261   -3.3429 H   0  0  0  0  0  0  0  0  0  0  0  0
   -4.6898   -4.0757    1.9216 H   0  0  0  0  0  0  0  0  0  0  0  0
   -4.7160   -5.2377    0.5729 H   0  0  0  0  0  0  0  0  0  0  0  0
   -3.2039   -4.3894    0.9789 H   0  0  0  0  0  0  0  0  0  0  0  0
   -3.1879   -2.2352    1.9745 H   0  0  0  0  0  0  0  0  0  0  0  0
   -2.6547    0.1369    2.1388 H   0  0  0  0  0  0  0  0  0  0  0  0
   -2.3813    2.0351   -1.4940 H   0  0  0  0  0  0  0  0  0  0  0  0
   -2.7892    3.7354   -0.9795 H   0  0  0  0  0  0  0  0  0  0  0  0
   -1.8708   -0.6567   -2.1660 H   0  0  0  0  0  0  0  0  0  0  0  0
   -1.5458    0.7751   -3.2570 H   0  0  0  0  0  0  0  0  0  0  0  0
   -1.2808    1.5765    0.6430 H   0  0  0  0  0  0  0  0  0  0  0  0
    0.5157    1.2800   -2.1210 H   0  0  0  0  0  0  0  0  0  0  0  0
    1.9511   -0.2771    0.6788 H   0  0  0  0  0  0  0  0  0  0  0  0
    2.0089    1.0855   -0.4485 H   0  0  0  0  0  0  0  0  0  0  0  0
    2.6733   -0.4654   -2.2841 H   0  0  0  0  0  0  0  0  0  0  0  0
    2.6582   -1.8217   -1.1468 H   0  0  0  0  0  0  0  0  0  0  0  0
    4.2269    1.5154   -1.7600 H   0  0  0  0  0  0  0  0  0  0  0  0
    6.4830    2.1040   -1.0581 H   0  0  0  0  0  0  0  0  0  0  0  0
    8.1904    2.5381    0.5350 H   0  0  0  0  0  0  0  0  0  0  0  0
    8.8421    1.8344   -0.9733 H   0  0  0  0  0  0  0  0  0  0  0  0
    9.7189    1.6244    0.5625 H   0  0  0  0  0  0  0  0  0  0  0  0
    7.5009   -3.5709    1.8862 H   0  0  0  0  0  0  0  0  0  0  0  0
    5.7962   -3.0771    2.0254 H   0  0  0  0  0  0  0  0  0  0  0  0
    6.4249   -3.7064    0.4739 H   0  0  0  0  0  0  0  0  0  0  0  0
    4.5649   -2.2723    0.1695 H   0  0  0  0  0  0  0  0  0  0  0  0
   -0.1021   -2.2560   -1.0638 H   0  0  0  0  0  0  0  0  0  0  0  0
   -1.2095   -1.2949   -0.0681 H   0  0  0  0  0  0  0  0  0  0  0  0
    0.3453   -1.8176    0.5975 H   0  0  0  0  0  0  0  0  0  0  0  0
   -5.4451    2.5923    0.8751 H   0  0  0  0  0  0  0  0  0  0  0  0
   -3.3718    3.0209    3.0590 H   0  0  0  0  0  0  0  0  0  0  0  0
   -4.4453    1.6143    2.9172 H   0  0  0  0  0  0  0  0  0  0  0  0
   -5.1157    3.2093    3.2503 H   0  0  0  0  0  0  0  0  0  0  0  0
   -3.3913    4.8198    1.1962 H   0  0  0  0  0  0  0  0  0  0  0  0
   -4.6166    4.6959   -0.0839 H   0  0  0  0  0  0  0  0  0  0  0  0
   -5.1092    4.9688    1.5824 H   0  0  0  0  0  0  0  0  0  0  0  0
   -0.7877    3.4027    2.0023 H   0  0  0  0  0  0  0  0  0  0  0  0
  1  2  4  0  0  0  0
  2  3  1  0  0  0  0
  3  4  1  0  0  0  0
  4  5  4  0  0  0  0
  5  6  4  0  0  0  0
  6  7  1  0  0  0  0
  7  8  1  0  0  0  0
  6  9  4  0  0  0  0
  9 10  1  0  0  0  0
 10 11  1  0  0  0  0
  9 12  4  0  0  0  0
  4 13  4  0  0  0  0
 12 13  4  0  0  0  0
  2 14  1  0  0  0  0
  3 14  1  0  0  0  0
 15 16  2  0  0  0  0
 16 17  4  0  0  0  0
 17 18  1  0  0  0  0
 18 19  1  0  0  0  0
 19 20  1  0  0  0  0
 20 21  4  0  0  0  0
 21 22  4  0  0  0  0
 22 23  4  0  0  0  0
 23 24  1  0  0  0  0
 24 25  1  0  0  0  0
 23 26  4  0  0  0  0
 26 27  1  0  0  0  0
 27 28  1  0  0  0  0
 20 29  4  0  0  0  0
 26 29  4  0  0  0  0
 17 30  1  0  0  0  0
  3 31  1  0  0  0  0
 31 32  1  0  0  0  0
 31 33  1  0  0  0  0
  5 34  1  0  0  0  0
  8 35  1  0  0  0  0
  8 36  1  0  0  0  0
  8 37  1  0  0  0  0
 11 38  1  0  0  0  0
 11 39  1  0  0  0  0
 11 40  1  0  0  0  0
 12 41  1  0  0  0  0
 13 42  1  0  0  0  0
 14 43  1  0  0  0  0
 14 44  1  0  0  0  0
 15 45  1  0  0  0  0
 15 46  1  0  0  0  0
  2 47  1  0  0  0  0
 16 48  1  0  0  0  0
 18 49  1  0  0  0  0
 18 50  1  0  0  0  0
 19 51  1  0  0  0  0
 19 52  1  0  0  0  0
 21 53  1  0  0  0  0
 22 54  1  0  0  0  0
 25 55  1  0  0  0  0
 25 56  1  0  0  0  0
 25 57  1  0  0  0  0
 28 58  1  0  0  0  0
 28 59  1  0  0  0  0
 28 60  1  0  0  0  0
 29 61  1  0  0  0  0
 30 62  1  0  0  0  0
 30 63  1  0  0  0  0
 30 64  1  0  0  0  0
 31 65  1  0  0  0  0
 32 66  1  0  0  0  0
 32 67  1  0  0  0  0
 32 68  1  0  0  0  0
 33 69  1  0  0  0  0
 33 70  1  0  0  0  0
 33 71  1  0  0  0  0
  1 72  1  0  0  0  0
M  CHG  1   1   1
M  END
