 xtb: 6.6.1 (8d0f1dd)
          06052419583D

 25 25  0     0  0            999 V2000
    3.0005    1.2177    0.5130 C   0  0  0  0  0  0  0  0  0  0  0  0
    2.0933    0.1445    0.2148 N   0  0  0  0  0  0  0  0  0  0  0  0
    2.4379   -1.0876   -0.0593 C   0  0  0  0  0  0  0  0  0  0  0  0
    1.3658   -1.8504   -0.2695 N   0  0  0  0  0  0  0  0  0  0  0  0
    0.1862   -1.0742   -0.1305 C   0  0  0  0  0  0  0  0  0  0  0  0
    0.6875    0.2403    0.2115 C   0  0  0  0  0  0  0  0  0  0  0  0
    0.0878    1.4526    0.4887 C   0  0  0  0  0  0  0  0  0  0  0  0
    0.5069    2.5501    0.7109 O   0  0  0  0  0  0  0  0  0  0  0  0
   -1.5260    1.3531    0.5006 N   0  0  0  0  0  0  0  0  0  0  0  0
   -2.1593    1.2723   -0.8060 C   0  0  0  0  0  0  0  0  0  0  0  0
   -2.0622    1.5838    1.5870 C   0  0  0  0  0  0  0  0  0  0  0  0
   -2.4574    1.7651    2.6387 O   0  0  0  0  0  0  0  0  0  0  0  0
   -1.0084   -1.4492   -0.3071 N   0  0  0  0  0  0  0  0  0  0  0  0
   -1.3236   -2.8045   -0.6888 C   0  0  0  0  0  0  0  0  0  0  0  0
    2.9189    1.5020    1.5632 H   0  0  0  0  0  0  0  0  0  0  0  0
    4.0193    0.8994    0.3035 H   0  0  0  0  0  0  0  0  0  0  0  0
    2.7595    2.0931   -0.0886 H   0  0  0  0  0  0  0  0  0  0  0  0
    3.4536   -1.4373   -0.1093 H   0  0  0  0  0  0  0  0  0  0  0  0
   -1.7953    2.0909   -1.4272 H   0  0  0  0  0  0  0  0  0  0  0  0
   -1.8891    0.3078   -1.2360 H   0  0  0  0  0  0  0  0  0  0  0  0
   -3.2408    1.3384   -0.7066 H   0  0  0  0  0  0  0  0  0  0  0  0
   -0.9374   -3.5332    0.0281 H   0  0  0  0  0  0  0  0  0  0  0  0
   -0.9276   -3.0410   -1.6797 H   0  0  0  0  0  0  0  0  0  0  0  0
   -2.4076   -2.8847   -0.7182 H   0  0  0  0  0  0  0  0  0  0  0  0
    1.3779   -2.8308   -0.5020 H   0  0  0  0  0  0  0  0  0  0  0  0
  1  2  1  0  0  0  0
  2  3  4  0  0  0  0
  3  4  4  0  0  0  0
  4  5  1  0  0  0  0
  2  6  1  0  0  0  0
  5  6  1  0  0  0  0
  6  7  4  0  0  0  0
  7  8  2  0  0  0  0
  7  9  1  0  0  0  0
  9 10  1  0  0  0  0
  9 11  2  0  0  0  0
 11 12  2  0  0  0  0
  5 13  2  0  0  0  0
 13 14  1  0  0  0  0
  1 15  1  0  0  0  0
  1 16  1  0  0  0  0
  1 17  1  0  0  0  0
  3 18  1  0  0  0  0
 10 19  1  0  0  0  0
 10 20  1  0  0  0  0
 10 21  1  0  0  0  0
 14 22  1  0  0  0  0
 14 23  1  0  0  0  0
 14 24  1  0  0  0  0
  4 25  1  0  0  0  0
M  CHG  1   1   1
M  END
