 xtb: 6.6.1 (8d0f1dd)
          04062411163D

 72 73  0     0  0            999 V2000
   -1.7771    2.8366    2.1851 N   0  0  0  0  0  0  0  0  0  0  0  0
   -1.7005    2.2027    1.1099 C   0  0  0  0  0  0  0  0  0  0  0  0
   -2.8669    1.9442    0.1934 C   0  0  0  0  0  0  0  0  0  0  0  0
   -3.2827    0.4829    0.2998 C   0  0  0  0  0  0  0  0  0  0  0  0
   -4.2644    0.0004   -0.6015 C   0  0  0  0  0  0  0  0  0  0  0  0
   -4.7156   -1.3155   -0.5549 C   0  0  0  0  0  0  0  0  0  0  0  0
   -5.6543   -1.8381   -1.3804 O   0  0  0  0  0  0  0  0  0  0  0  0
   -6.3301   -0.9858   -2.2773 C   0  0  0  0  0  0  0  0  0  0  0  0
   -4.1924   -2.2084    0.3864 C   0  0  0  0  0  0  0  0  0  0  0  0
   -4.6573   -3.4628    0.3532 O   0  0  0  0  0  0  0  0  0  0  0  0
   -4.2079   -4.4109    1.2923 C   0  0  0  0  0  0  0  0  0  0  0  0
   -3.1891   -1.7633    1.3907 C   0  0  0  0  0  0  0  0  0  0  0  0
   -2.7620   -0.3463    1.2347 C   0  0  0  0  0  0  0  0  0  0  0  0
   -2.3767    2.2546   -1.2458 C   0  0  0  0  0  0  0  0  0  0  0  0
   -1.4953    1.1716   -1.8984 C   0  0  0  0  0  0  0  0  0  0  0  0
   -0.1380    1.0650   -1.3022 C   0  0  0  0  0  0  0  0  0  0  0  0
    0.4175   -0.0371   -0.8122 N   0  0  0  0  0  0  0  0  0  0  0  0
    1.7996    0.0787   -0.3534 C   0  0  0  0  0  0  0  0  0  0  0  0
    2.7894   -0.2666   -1.4762 C   0  0  0  0  0  0  0  0  0  0  0  0
    4.1993   -0.0857   -0.9847 C   0  0  0  0  0  0  0  0  0  0  0  0
    4.8653    1.1145   -1.1702 C   0  0  0  0  0  0  0  0  0  0  0  0
    6.1531    1.2943   -0.6890 C   0  0  0  0  0  0  0  0  0  0  0  0
    6.8001    0.2752   -0.0049 C   0  0  0  0  0  0  0  0  0  0  0  0
    8.0443    0.3370    0.5045 O   0  0  0  0  0  0  0  0  0  0  0  0
    8.8002    1.5138    0.3331 C   0  0  0  0  0  0  0  0  0  0  0  0
    6.1230   -0.9600    0.1937 C   0  0  0  0  0  0  0  0  0  0  0  0
    6.8238   -1.8953    0.8659 O   0  0  0  0  0  0  0  0  0  0  0  0
    6.2485   -3.1602    1.0885 C   0  0  0  0  0  0  0  0  0  0  0  0
    4.8363   -1.1160   -0.2968 C   0  0  0  0  0  0  0  0  0  0  0  0
   -0.1374   -1.2374   -0.7132 C   0  0  0  0  0  0  0  0  0  0  0  0
   -4.1055    2.8295    0.5278 C   0  0  0  0  0  0  0  0  0  0  0  0
   -4.7241    2.4546    1.8726 C   0  0  0  0  0  0  0  0  0  0  0  0
   -3.7915    4.3231    0.5050 C   0  0  0  0  0  0  0  0  0  0  0  0
   -4.6780    0.6709   -1.3330 H   0  0  0  0  0  0  0  0  0  0  0  0
   -6.8342   -0.1693   -1.7519 H   0  0  0  0  0  0  0  0  0  0  0  0
   -7.0736   -1.6121   -2.7660 H   0  0  0  0  0  0  0  0  0  0  0  0
   -5.6532   -0.5757   -3.0335 H   0  0  0  0  0  0  0  0  0  0  0  0
   -4.4376   -4.1042    2.3169 H   0  0  0  0  0  0  0  0  0  0  0  0
   -4.7444   -5.3295    1.0623 H   0  0  0  0  0  0  0  0  0  0  0  0
   -3.1319   -4.5894    1.2020 H   0  0  0  0  0  0  0  0  0  0  0  0
   -3.6269   -1.8782    2.3976 H   0  0  0  0  0  0  0  0  0  0  0  0
   -2.0374    0.0043    1.9527 H   0  0  0  0  0  0  0  0  0  0  0  0
   -3.2453    2.4047   -1.8868 H   0  0  0  0  0  0  0  0  0  0  0  0
   -1.8204    3.1929   -1.2272 H   0  0  0  0  0  0  0  0  0  0  0  0
   -2.0154    0.2164   -1.8755 H   0  0  0  0  0  0  0  0  0  0  0  0
   -1.3801    1.4607   -2.9500 H   0  0  0  0  0  0  0  0  0  0  0  0
   -0.7604    1.7890    0.7091 H   0  0  0  0  0  0  0  0  0  0  0  0
    0.4898    1.9398   -1.3523 H   0  0  0  0  0  0  0  0  0  0  0  0
    1.9533   -0.5979    0.4891 H   0  0  0  0  0  0  0  0  0  0  0  0
    1.9859    1.0990   -0.0121 H   0  0  0  0  0  0  0  0  0  0  0  0
    2.6055    0.3886   -2.3291 H   0  0  0  0  0  0  0  0  0  0  0  0
    2.6267   -1.2978   -1.7940 H   0  0  0  0  0  0  0  0  0  0  0  0
    4.3870    1.9210   -1.7049 H   0  0  0  0  0  0  0  0  0  0  0  0
    6.6481    2.2367   -0.8560 H   0  0  0  0  0  0  0  0  0  0  0  0
    8.3218    2.3713    0.8160 H   0  0  0  0  0  0  0  0  0  0  0  0
    8.9629    1.7342   -0.7261 H   0  0  0  0  0  0  0  0  0  0  0  0
    9.7575    1.3180    0.8122 H   0  0  0  0  0  0  0  0  0  0  0  0
    7.0022   -3.7337    1.6245 H   0  0  0  0  0  0  0  0  0  0  0  0
    5.3455   -3.0877    1.7034 H   0  0  0  0  0  0  0  0  0  0  0  0
    6.0116   -3.6651    0.1468 H   0  0  0  0  0  0  0  0  0  0  0  0
    4.3174   -2.0518   -0.1598 H   0  0  0  0  0  0  0  0  0  0  0  0
   -1.1271   -1.4224   -1.0743 H   0  0  0  0  0  0  0  0  0  0  0  0
   -2.3160   -2.4283    1.3880 H   0  0  0  0  0  0  0  0  0  0  0  0
    0.4297   -2.0382   -0.2861 H   0  0  0  0  0  0  0  0  0  0  0  0
   -4.8513    2.6340   -0.2510 H   0  0  0  0  0  0  0  0  0  0  0  0
   -4.0057    2.6180    2.6691 H   0  0  0  0  0  0  0  0  0  0  0  0
   -5.0382    1.4138    1.8857 H   0  0  0  0  0  0  0  0  0  0  0  0
   -5.5957    3.0767    2.0579 H   0  0  0  0  0  0  0  0  0  0  0  0
   -3.0637    4.5679    1.2724 H   0  0  0  0  0  0  0  0  0  0  0  0
   -3.4129    4.6432   -0.4619 H   0  0  0  0  0  0  0  0  0  0  0  0
   -4.7009    4.8824    0.7090 H   0  0  0  0  0  0  0  0  0  0  0  0
   -0.9200    2.9726    2.7125 H   0  0  0  0  0  0  0  0  0  0  0  0
  1  2  2  0  0  0  0
  2  3  1  0  0  0  0
  3  4  1  0  0  0  0
  4  5  4  0  0  0  0
  5  6  4  0  0  0  0
  6  7  1  0  0  0  0
  7  8  1  0  0  0  0
  6  9  4  0  0  0  0
  9 10  1  0  0  0  0
 10 11  1  0  0  0  0
  9 12  1  0  0  0  0
  4 13  2  0  0  0  0
 12 13  1  0  0  0  0
  3 14  1  0  0  0  0
 14 15  1  0  0  0  0
 15 16  1  0  0  0  0
 16 17  4  0  0  0  0
 17 18  1  0  0  0  0
 18 19  1  0  0  0  0
 19 20  1  0  0  0  0
 20 21  4  0  0  0  0
 21 22  4  0  0  0  0
 22 23  4  0  0  0  0
 23 24  1  0  0  0  0
 24 25  1  0  0  0  0
 23 26  4  0  0  0  0
 26 27  1  0  0  0  0
 27 28  1  0  0  0  0
 20 29  4  0  0  0  0
 26 29  4  0  0  0  0
 17 30  4  0  0  0  0
  3 31  1  0  0  0  0
 31 32  1  0  0  0  0
 31 33  1  0  0  0  0
  5 34  1  0  0  0  0
  8 35  1  0  0  0  0
  8 36  1  0  0  0  0
  8 37  1  0  0  0  0
 11 38  1  0  0  0  0
 11 39  1  0  0  0  0
 11 40  1  0  0  0  0
 12 41  1  0  0  0  0
 13 42  1  0  0  0  0
 14 43  1  0  0  0  0
 14 44  1  0  0  0  0
 15 45  1  0  0  0  0
 15 46  1  0  0  0  0
  2 47  1  0  0  0  0
 16 48  1  0  0  0  0
 18 49  1  0  0  0  0
 18 50  1  0  0  0  0
 19 51  1  0  0  0  0
 19 52  1  0  0  0  0
 21 53  1  0  0  0  0
 22 54  1  0  0  0  0
 25 55  1  0  0  0  0
 25 56  1  0  0  0  0
 25 57  1  0  0  0  0
 28 58  1  0  0  0  0
 28 59  1  0  0  0  0
 28 60  1  0  0  0  0
 29 61  1  0  0  0  0
 30 62  1  0  0  0  0
 12 63  1  0  0  0  0
 30 64  1  0  0  0  0
 31 65  1  0  0  0  0
 32 66  1  0  0  0  0
 32 67  1  0  0  0  0
 32 68  1  0  0  0  0
 33 69  1  0  0  0  0
 33 70  1  0  0  0  0
 33 71  1  0  0  0  0
  1 72  1  0  0  0  0
M  CHG  1   1   1
M  END
