 xtb: 6.6.1 (8d0f1dd)
          06052419593D

 25 25  0     0  0            999 V2000
    2.0809    1.5501   -0.3245 C   0  0  0  0  0  0  0  0  0  0  0  0
    1.6901    0.1627   -0.3032 N   0  0  0  0  0  0  0  0  0  0  0  0
    2.5017   -0.8124   -0.6820 C   0  0  0  0  0  0  0  0  0  0  0  0
    1.9293   -1.9934   -0.4698 N   0  0  0  0  0  0  0  0  0  0  0  0
    0.6682   -1.8228    0.1172 C   0  0  0  0  0  0  0  0  0  0  0  0
    0.5156   -0.3878    0.2003 C   0  0  0  0  0  0  0  0  0  0  0  0
   -0.5764    0.3128    0.8029 C   0  0  0  0  0  0  0  0  0  0  0  0
   -1.3947   -0.1953    1.5486 O   0  0  0  0  0  0  0  0  0  0  0  0
   -0.6641    1.7177    0.5441 N   0  0  0  0  0  0  0  0  0  0  0  0
   -1.1275    2.1710   -0.7602 C   0  0  0  0  0  0  0  0  0  0  0  0
   -2.5301    1.8731   -0.9404 C   0  0  0  0  0  0  0  0  0  0  0  0
   -3.5825    1.5053   -0.6255 O   0  0  0  0  0  0  0  0  0  0  0  0
    0.0137   -2.8834    0.3887 N   0  0  0  0  0  0  0  0  0  0  0  0
   -1.2470   -3.0878    0.9784 C   0  0  0  0  0  0  0  0  0  0  0  0
    1.5780    2.0871    0.4761 H   0  0  0  0  0  0  0  0  0  0  0  0
    3.1582    1.6194   -0.1836 H   0  0  0  0  0  0  0  0  0  0  0  0
    1.8296    2.0131   -1.2800 H   0  0  0  0  0  0  0  0  0  0  0  0
    3.4829   -0.6633   -1.0904 H   0  0  0  0  0  0  0  0  0  0  0  0
   -1.2123    2.1391    1.2925 H   0  0  0  0  0  0  0  0  0  0  0  0
   -0.5497    1.6926   -1.5587 H   0  0  0  0  0  0  0  0  0  0  0  0
   -0.9813    3.2570   -0.8362 H   0  0  0  0  0  0  0  0  0  0  0  0
   -1.1436   -3.9061    1.6956 H   0  0  0  0  0  0  0  0  0  0  0  0
   -1.9474   -3.4193    0.2065 H   0  0  0  0  0  0  0  0  0  0  0  0
   -1.6506   -2.2036    1.4798 H   0  0  0  0  0  0  0  0  0  0  0  0
    2.3195   -2.9073   -0.6451 H   0  0  0  0  0  0  0  0  0  0  0  0
  1  2  1  0  0  0  0
  2  3  4  0  0  0  0
  3  4  4  0  0  0  0
  4  5  1  0  0  0  0
  2  6  1  0  0  0  0
  5  6  1  0  0  0  0
  6  7  1  0  0  0  0
  7  8  2  0  0  0  0
  7  9  1  0  0  0  0
  9 10  1  0  0  0  0
 10 11  1  0  0  0  0
 11 12  2  0  0  0  0
  5 13  2  0  0  0  0
 13 14  1  0  0  0  0
  1 15  1  0  0  0  0
  1 16  1  0  0  0  0
  1 17  1  0  0  0  0
  3 18  1  0  0  0  0
  9 19  1  0  0  0  0
 10 20  1  0  0  0  0
 10 21  1  0  0  0  0
 14 22  1  0  0  0  0
 14 23  1  0  0  0  0
 14 24  1  0  0  0  0
  4 25  1  0  0  0  0
M  CHG  1   1   1
M  END
