 xtb: 6.6.1 (8d0f1dd)
          06052419583D

 25 25  0     0  0            999 V2000
    3.0022    0.7665    0.0391 C   0  0  0  0  0  0  0  0  0  0  0  0
    2.4261   -0.5748    0.0033 N   0  0  0  0  0  0  0  0  0  0  0  0
    3.3327   -1.6261   -0.0120 C   0  0  0  0  0  0  0  0  0  0  0  0
    3.1101   -2.8575   -0.0390 N   0  0  0  0  0  0  0  0  0  0  0  0
   -0.0610   -0.1955   -0.0043 C   0  0  0  0  0  0  0  0  0  0  0  0
    1.1309   -0.8177   -0.0041 C   0  0  0  0  0  0  0  0  0  0  0  0
   -0.3993    1.2624   -0.0162 C   0  0  0  0  0  0  0  0  0  0  0  0
    0.3525    2.2091   -0.0260 O   0  0  0  0  0  0  0  0  0  0  0  0
   -1.7692    1.3077   -0.0109 N   0  0  0  0  0  0  0  0  0  0  0  0
   -2.5746    2.5005   -0.0170 C   0  0  0  0  0  0  0  0  0  0  0  0
   -2.3284    0.0329    0.0013 C   0  0  0  0  0  0  0  0  0  0  0  0
   -3.4976   -0.2365    0.0088 O   0  0  0  0  0  0  0  0  0  0  0  0
   -1.2721   -0.8589    0.0039 N   0  0  0  0  0  0  0  0  0  0  0  0
   -1.4512   -2.2809    0.0151 C   0  0  0  0  0  0  0  0  0  0  0  0
    3.5898    0.8881    0.9507 H   0  0  0  0  0  0  0  0  0  0  0  0
    3.6506    0.9075   -0.8272 H   0  0  0  0  0  0  0  0  0  0  0  0
    2.2177    1.5231    0.0201 H   0  0  0  0  0  0  0  0  0  0  0  0
    4.3725   -1.3059    0.0020 H   0  0  0  0  0  0  0  0  0  0  0  0
   -1.9188    3.3704   -0.0107 H   0  0  0  0  0  0  0  0  0  0  0  0
   -3.2080    2.5139   -0.9074 H   0  0  0  0  0  0  0  0  0  0  0  0
   -3.2228    2.5110    0.8626 H   0  0  0  0  0  0  0  0  0  0  0  0
   -0.9919   -2.7163    0.9054 H   0  0  0  0  0  0  0  0  0  0  0  0
   -1.0012   -2.7287   -0.8738 H   0  0  0  0  0  0  0  0  0  0  0  0
   -2.5222   -2.4848    0.0220 H   0  0  0  0  0  0  0  0  0  0  0  0
    2.1939   -3.2910   -0.0547 H   0  0  0  0  0  0  0  0  0  0  0  0
  1  2  1  0  0  0  0
  2  3  1  0  0  0  0
  3  4  2  0  0  0  0
  2  6  4  0  0  0  0
  5  6  4  0  0  0  0
  5  7  1  0  0  0  0
  7  8  2  0  0  0  0
  7  9  1  0  0  0  0
  9 10  1  0  0  0  0
  9 11  1  0  0  0  0
 11 12  2  0  0  0  0
  5 13  1  0  0  0  0
 11 13  1  0  0  0  0
 13 14  1  0  0  0  0
  1 15  1  0  0  0  0
  1 16  1  0  0  0  0
  1 17  1  0  0  0  0
  3 18  1  0  0  0  0
 10 19  1  0  0  0  0
 10 20  1  0  0  0  0
 10 21  1  0  0  0  0
 14 22  1  0  0  0  0
 14 23  1  0  0  0  0
 14 24  1  0  0  0  0
  4 25  1  0  0  0  0
M  CHG  1   1   1
M  END
