          20
 
C             -3.31045891       -0.40355472        1.17576234
C             -4.25818386       -0.28785143        0.16823223
C             -5.00577074       -1.38840352       -0.22684674
O             -5.96090497       -1.38629346       -1.17512814
C             -6.29470963       -0.17827684       -1.81593323
C             -4.78256793       -2.64577899        0.40550249
O             -5.55652495       -3.65016404       -0.04038131
C             -5.46525180       -4.91862438        0.56681416
C             -3.82120216       -2.74089582        1.40409158
C             -3.09297711       -1.62418023        1.78671466
H             -4.42170761        0.66935802       -0.30052175
H             -6.62645946        0.57842487       -1.09773022
H             -7.11569023       -0.42066697       -2.48811343
H             -5.45331906        0.21108135       -2.39867808
H             -5.68826720       -4.86615268        1.63636303
H             -6.21403942       -5.53378222        0.07085829
H             -4.47577550       -5.36281340        0.42023555
H             -3.64163457       -3.68284951        1.89579323
H             -2.36187450       -1.71226301        2.57507369
H             -2.75305030        0.46259849        1.49344011
