          24
 
C              3.22926784        1.14338780        0.01577516
N              2.28598357        0.05693018       -0.00098590
C              2.57037706       -1.24091547       -0.01148706
N              1.43108575       -1.96434184       -0.01637114
C              0.37535307       -1.08631774       -0.00797857
C              0.91890487        0.19307336       -0.00075779
C              0.09849293        1.38378161        0.00209416
O              0.50257838        2.52462259        0.00582395
N             -1.26218784        1.05742707       -0.00267251
C             -2.21179096        2.16593990       -0.02331206
C             -1.84225839       -0.18081270        0.00480431
O             -3.02676823       -0.35979850        0.00951345
N             -0.95662158       -1.33729385        0.00316020
C             -1.52302532       -2.55574342        0.01157323
H              3.85702366        1.08496870        0.90485622
H              3.86711596        1.10550697       -0.86732924
H              2.67855385        2.08361518        0.02352947
H              3.55820794       -1.65823617       -0.01552791
H             -1.64475245        3.09319346       -0.01253638
H             -2.82479124        2.10773019       -0.92172377
H             -2.86428349        2.10988560        0.84654908
H             -0.92326757       -3.44013539       -0.03705733
H             -2.60709887       -2.60530937        0.04090399
H              1.38395544       -2.97277820       -0.02200021
