 xtb: 6.6.1 (8d0f1dd)
          04062411153D

 72 73  0     0  0            999 V2000
   -1.9060    2.7650    2.1997 N   0  0  0  0  0  0  0  0  0  0  0  0
   -1.8628    2.1009    1.1421 C   0  0  0  0  0  0  0  0  0  0  0  0
   -3.0270    1.9096    0.2060 C   0  0  0  0  0  0  0  0  0  0  0  0
   -3.5438    0.4864    0.3237 C   0  0  0  0  0  0  0  0  0  0  0  0
   -4.6839    0.0959   -0.5763 C   0  0  0  0  0  0  0  0  0  0  0  0
   -5.0223   -1.3630   -0.5202 C   0  0  0  0  0  0  0  0  0  0  0  0
   -5.9420   -1.8665   -1.3183 O   0  0  0  0  0  0  0  0  0  0  0  0
   -6.6435   -1.2180   -2.1980 C   0  0  0  0  0  0  0  0  0  0  0  0
   -4.4323   -2.2416    0.4211 C   0  0  0  0  0  0  0  0  0  0  0  0
   -4.8876   -3.5134    0.3752 O   0  0  0  0  0  0  0  0  0  0  0  0
   -4.4261   -4.4384    1.3344 C   0  0  0  0  0  0  0  0  0  0  0  0
   -3.4617   -1.7602    1.2764 C   0  0  0  0  0  0  0  0  0  0  0  0
   -3.0281   -0.4131    1.1948 C   0  0  0  0  0  0  0  0  0  0  0  0
   -2.4705    2.1388   -1.2268 C   0  0  0  0  0  0  0  0  0  0  0  0
   -1.5519    1.0147   -1.7391 C   0  0  0  0  0  0  0  0  0  0  0  0
   -0.1991    1.0489   -1.1363 C   0  0  0  0  0  0  0  0  0  0  0  0
    0.4982   -0.0181   -0.7492 N   0  0  0  0  0  0  0  0  0  0  0  0
    1.8742    0.1170   -0.3346 C   0  0  0  0  0  0  0  0  0  0  0  0
    2.8595   -0.3308   -1.4309 C   0  0  0  0  0  0  0  0  0  0  0  0
    4.2702   -0.1277   -0.9531 C   0  0  0  0  0  0  0  0  0  0  0  0
    4.9115    1.0851   -1.1403 C   0  0  0  0  0  0  0  0  0  0  0  0
    6.1999    1.2869   -0.6692 C   0  0  0  0  0  0  0  0  0  0  0  0
    6.8714    0.2777    0.0049 C   0  0  0  0  0  0  0  0  0  0  0  0
    8.1207    0.3612    0.5025 O   0  0  0  0  0  0  0  0  0  0  0  0
    8.8524    1.5514    0.3213 C   0  0  0  0  0  0  0  0  0  0  0  0
    6.2196   -0.9693    0.2061 C   0  0  0  0  0  0  0  0  0  0  0  0
    6.9439   -1.8952    0.8688 O   0  0  0  0  0  0  0  0  0  0  0  0
    6.3931   -3.1715    1.0873 C   0  0  0  0  0  0  0  0  0  0  0  0
    4.9317   -1.1474   -0.2724 C   0  0  0  0  0  0  0  0  0  0  0  0
   -0.0567   -1.3493   -0.7847 C   0  0  0  0  0  0  0  0  0  0  0  0
   -4.1901    2.9117    0.4785 C   0  0  0  0  0  0  0  0  0  0  0  0
   -4.8485    2.6472    1.8310 C   0  0  0  0  0  0  0  0  0  0  0  0
   -3.7560    4.3732    0.4005 C   0  0  0  0  0  0  0  0  0  0  0  0
   -5.5845    0.6619   -0.2772 H   0  0  0  0  0  0  0  0  0  0  0  0
   -6.5660   -0.1575   -2.3579 H   0  0  0  0  0  0  0  0  0  0  0  0
   -7.3357   -1.8141   -2.7600 H   0  0  0  0  0  0  0  0  0  0  0  0
   -4.4780    0.3897   -1.6087 H   0  0  0  0  0  0  0  0  0  0  0  0
   -4.6375   -4.0971    2.3515 H   0  0  0  0  0  0  0  0  0  0  0  0
   -4.9753   -5.3574    1.1401 H   0  0  0  0  0  0  0  0  0  0  0  0
   -3.3537   -4.6274    1.2259 H   0  0  0  0  0  0  0  0  0  0  0  0
   -3.0117   -2.3988    2.0168 H   0  0  0  0  0  0  0  0  0  0  0  0
   -2.2445   -0.1152    1.8761 H   0  0  0  0  0  0  0  0  0  0  0  0
   -3.3092    2.2430   -1.9152 H   0  0  0  0  0  0  0  0  0  0  0  0
   -1.9201    3.0797   -1.2426 H   0  0  0  0  0  0  0  0  0  0  0  0
   -2.0271    0.0469   -1.5864 H   0  0  0  0  0  0  0  0  0  0  0  0
   -1.4385    1.1635   -2.8215 H   0  0  0  0  0  0  0  0  0  0  0  0
   -0.9463    1.6134    0.7570 H   0  0  0  0  0  0  0  0  0  0  0  0
    0.3290    1.9904   -1.1486 H   0  0  0  0  0  0  0  0  0  0  0  0
    2.0374   -0.4838    0.5648 H   0  0  0  0  0  0  0  0  0  0  0  0
    2.0750    1.1612   -0.0868 H   0  0  0  0  0  0  0  0  0  0  0  0
    2.6796    0.2614   -2.3297 H   0  0  0  0  0  0  0  0  0  0  0  0
    2.6904   -1.3815   -1.6696 H   0  0  0  0  0  0  0  0  0  0  0  0
    4.4138    1.8841   -1.6687 H   0  0  0  0  0  0  0  0  0  0  0  0
    6.6757    2.2391   -0.8368 H   0  0  0  0  0  0  0  0  0  0  0  0
    8.3673    2.3995    0.8143 H   0  0  0  0  0  0  0  0  0  0  0  0
    8.9938    1.7770   -0.7399 H   0  0  0  0  0  0  0  0  0  0  0  0
    9.8209    1.3717    0.7840 H   0  0  0  0  0  0  0  0  0  0  0  0
    7.1617   -3.7355    1.6121 H   0  0  0  0  0  0  0  0  0  0  0  0
    5.4945   -3.1201    1.7109 H   0  0  0  0  0  0  0  0  0  0  0  0
    6.1566   -3.6740    0.1441 H   0  0  0  0  0  0  0  0  0  0  0  0
    4.4309   -2.0926   -0.1316 H   0  0  0  0  0  0  0  0  0  0  0  0
   -0.2324   -1.6764   -1.8121 H   0  0  0  0  0  0  0  0  0  0  0  0
   -1.0023   -1.3857   -0.2384 H   0  0  0  0  0  0  0  0  0  0  0  0
    0.6399   -2.0395   -0.3158 H   0  0  0  0  0  0  0  0  0  0  0  0
   -4.9340    2.7506   -0.3100 H   0  0  0  0  0  0  0  0  0  0  0  0
   -4.1526    2.8825    2.6291 H   0  0  0  0  0  0  0  0  0  0  0  0
   -5.1516    1.6082    1.9338 H   0  0  0  0  0  0  0  0  0  0  0  0
   -5.7285    3.2761    1.9390 H   0  0  0  0  0  0  0  0  0  0  0  0
   -2.9834    4.5809    1.1339 H   0  0  0  0  0  0  0  0  0  0  0  0
   -3.3933    4.6373   -0.5894 H   0  0  0  0  0  0  0  0  0  0  0  0
   -4.6104    5.0079    0.6207 H   0  0  0  0  0  0  0  0  0  0  0  0
   -1.0495    2.8466    2.7389 H   0  0  0  0  0  0  0  0  0  0  0  0
  1  2  2  0  0  0  0
  2  3  1  0  0  0  0
  3  4  1  0  0  0  0
  4  5  1  0  0  0  0
  5  6  1  0  0  0  0
  6  7  1  0  0  0  0
  7  8  4  0  0  0  0
  6  9  4  0  0  0  0
  9 10  1  0  0  0  0
 10 11  1  0  0  0  0
  9 12  4  0  0  0  0
  4 13  2  0  0  0  0
 12 13  4  0  0  0  0
  3 14  1  0  0  0  0
 14 15  1  0  0  0  0
 15 16  1  0  0  0  0
 16 17  4  0  0  0  0
 17 18  1  0  0  0  0
 18 19  1  0  0  0  0
 19 20  1  0  0  0  0
 20 21  4  0  0  0  0
 21 22  4  0  0  0  0
 22 23  4  0  0  0  0
 23 24  1  0  0  0  0
 24 25  1  0  0  0  0
 23 26  4  0  0  0  0
 26 27  1  0  0  0  0
 27 28  1  0  0  0  0
 20 29  4  0  0  0  0
 26 29  4  0  0  0  0
 17 30  1  0  0  0  0
  3 31  1  0  0  0  0
 31 32  1  0  0  0  0
 31 33  1  0  0  0  0
  5 34  1  0  0  0  0
  8 35  1  0  0  0  0
  8 36  1  0  0  0  0
  5 37  1  0  0  0  0
 11 38  1  0  0  0  0
 11 39  1  0  0  0  0
 11 40  1  0  0  0  0
 12 41  1  0  0  0  0
 13 42  1  0  0  0  0
 14 43  1  0  0  0  0
 14 44  1  0  0  0  0
 15 45  1  0  0  0  0
 15 46  1  0  0  0  0
  2 47  1  0  0  0  0
 16 48  1  0  0  0  0
 18 49  1  0  0  0  0
 18 50  1  0  0  0  0
 19 51  1  0  0  0  0
 19 52  1  0  0  0  0
 21 53  1  0  0  0  0
 22 54  1  0  0  0  0
 25 55  1  0  0  0  0
 25 56  1  0  0  0  0
 25 57  1  0  0  0  0
 28 58  1  0  0  0  0
 28 59  1  0  0  0  0
 28 60  1  0  0  0  0
 29 61  1  0  0  0  0
 30 62  1  0  0  0  0
 30 63  1  0  0  0  0
 30 64  1  0  0  0  0
 31 65  1  0  0  0  0
 32 66  1  0  0  0  0
 32 67  1  0  0  0  0
 32 68  1  0  0  0  0
 33 69  1  0  0  0  0
 33 70  1  0  0  0  0
 33 71  1  0  0  0  0
  1 72  1  0  0  0  0
M  CHG  1   1   1
M  END
