          10
 
C             -4.96080919        3.03047215        1.95376089
C             -5.93861537        3.07667957        3.04420684
C             -4.12856963        4.18987326        1.60347753
H             -4.83475070        2.12036098        1.39006718
H             -5.55528969        3.65065815        3.88991649
H             -6.22917875        2.08064353        3.37155235
H             -6.85048787        3.59521760        2.71791396
H             -3.09030211        4.00482521        1.90449146
H             -4.10458009        4.34613706        0.52321443
H             -4.47320113        5.09468651        2.09974131
