          24
 
C              3.38875375        0.58423314        0.01439675
N              2.24778201       -0.28505941       -0.00267450
C              2.24950477       -1.63802827       -0.00699430
N              1.03684992       -2.15183553       -0.00654104
C              0.19411824       -1.10061034       -0.00044059
C              0.93422423        0.09221012        0.00333644
C              0.30090231        1.38290963       -0.00308511
O              0.86663928        2.45658433       -0.01422174
N             -1.09311821        1.27237719        0.00276823
C             -1.86782119        2.49880198        0.00340863
C             -1.84434143        0.10217527        0.00442971
O             -3.05016657        0.13644780        0.00824412
N             -1.15531961       -1.10887324        0.00065178
C             -1.88710600       -2.35291914       -0.00348284
H              3.89572500        0.52769215        0.98082453
H              4.09522407        0.29431536       -0.76485502
H              3.05916323        1.61099617       -0.15095253
H              3.14470160       -2.22888127       -0.01094673
H             -1.17909651        3.34242940        0.01272544
H             -2.50410562        2.54002022       -0.88351187
H             -2.51700302        2.52945386        0.88126440
H             -1.61954567       -2.94167695        0.87537657
H             -1.63410889       -2.92797537       -0.89578498
H             -2.95333325       -2.12874136        0.00650240
