          71
 
N             -2.48212485        2.56638879        2.59149378
C             -1.89978085        2.08685871        1.50665076
C             -2.87815662        1.95822834        0.38768184
C             -3.46038831        0.54295598        0.35559751
C             -4.48565631        0.24704987       -0.54366482
C             -5.05369243       -1.01467963       -0.59411188
O             -6.04479496       -1.39202267       -1.42770721
C             -6.62968998       -0.43960893       -2.28303990
C             -4.58548129       -2.02845582        0.28559023
O             -5.19261297       -3.22461519        0.16436434
C             -4.82874693       -4.26488590        1.04232291
C             -3.56629486       -1.72426497        1.17199315
C             -3.00994941       -0.45186174        1.20605095
C             -2.28699526        2.32047465       -0.98719166
C             -1.37745273        1.22856509       -1.57603790
C             -0.06575275        1.13623643       -0.90140288
N              0.51426978        0.01581478       -0.47603896
C              1.90546208        0.03107604       -0.08990493
C              2.82187140       -0.31122413       -1.28186727
C              4.26749387       -0.19377608       -0.89061884
C              4.92127886        1.02491795       -0.96464798
C              6.25539726        1.13779145       -0.60473083
C              6.96241504        0.03114967       -0.15823829
O              8.26044578        0.02112571        0.20209240
C              9.00985673        1.20960610        0.09908269
C              6.29617149       -1.22112244       -0.06532130
O              7.05513476       -2.24386663        0.37938915
C              6.49167161       -3.53060422        0.46611545
C              4.96221553       -1.30940065       -0.42928768
C             -0.11484092       -1.27362681       -0.62795904
C             -4.00000375        2.93361767        0.87287893
C             -3.89534324        2.77558981        2.39780609
C             -3.77587023        4.38803751        0.47292959
H             -4.84734936        1.01584933       -1.20722077
H             -7.06937940        0.38992472       -1.72069261
H             -7.41765742       -0.97022752       -2.81388491
H             -5.90692318       -0.04996538       -3.00749459
H             -4.99427836       -3.98381187        2.08637881
H             -5.47402016       -5.10272302        0.78628807
H             -3.78290406       -4.55752092        0.90340227
H             -3.20558393       -2.46496859        1.86598991
H             -2.23162234       -0.24759915        1.92481620
H             -3.10982361        2.48117306       -1.68269164
H             -1.72522572        3.25105559       -0.90816707
H             -1.90302404        0.27583381       -1.57132599
H             -1.19494952        1.50191728       -2.62368448
H             -0.85973876        1.82394093        1.47988698
H              0.50265838        2.04589146       -0.78457391
H              2.06438106       -0.69109998        0.71422780
H              2.16705275        1.02347968        0.28345145
H              2.60114737        0.38238367       -2.09563629
H              2.60765552       -1.32437514       -1.62392712
H              4.39757223        1.89887649       -1.32168155
H              6.74006972        2.09698903       -0.68422771
H              8.61528149        1.99106924        0.75570614
H              9.03799791        1.57715848       -0.93118170
H             10.01742615        0.94757825        0.41606677
H              7.29200779       -4.17664668        0.82151853
H              5.66162052       -3.55867227        1.17946747
H              6.14783761       -3.88499957       -0.51074357
H              4.45052317       -2.25746013       -0.37389098
H             -0.20133148       -1.55545491       -1.68008938
H             -1.11315572       -1.26203251       -0.18535502
H              0.48137825       -2.02465026       -0.11575951
H             -4.97657423        2.60881807        0.51527187
H             -4.23972884        3.65067847        2.94853199
H             -4.43412947        1.88422022        2.76432091
H             -2.80410958        4.74228854        0.80846076
H             -3.84353723        4.51617285       -0.60281887
H             -4.54222798        5.00968645        0.92912416
H             -2.06550076        2.58971855        3.50935962
