          20
 
C              1.51533653       -1.05870667        0.26952262
N              0.94527490       -2.30044920        0.18970552
C             -0.39091499       -2.20799247        0.06458085
C              0.48837034       -0.16247970        0.18356232
C              0.10934737        1.25592680        0.15797510
O              0.78267124        2.25120466        0.22285984
N             -1.28153228        1.22428536        0.02602371
C             -2.09715320        2.41768277       -0.03331659
C             -1.81670248       -0.03424111       -0.03705630
O             -2.94900558       -0.38792190       -0.14865764
N             -0.67548949       -0.89957590        0.06271194
C             -1.35483365       -3.30984239       -0.04040993
H              2.57163200       -0.88883146        0.33909147
H             -1.43038660        3.27731509       -0.00879889
H             -2.68292902        2.42323070       -0.95205264
H             -2.77634864        2.44986038        0.81846939
H             -1.25780690       -3.98922385        0.80683309
H             -1.18192217       -3.89082043       -0.94731004
H             -2.36687926       -2.91175808       -0.06646088
H              1.45991423       -3.17110105        0.21909177
