 xtb: 6.6.1 (8d0f1dd)
          04062411123D

 72 72  0     0  0            999 V2000
   -1.9989    3.0532    2.1976 N   0  0  0  0  0  0  0  0  0  0  0  0
   -1.9352    2.2764    1.2217 C   0  0  0  0  0  0  0  0  0  0  0  0
   -3.0579    2.0287    0.2512 C   0  0  0  0  0  0  0  0  0  0  0  0
   -3.5256    0.5861    0.3732 C   0  0  0  0  0  0  0  0  0  0  0  0
   -4.3978    0.0511   -0.5748 C   0  0  0  0  0  0  0  0  0  0  0  0
   -4.8384   -1.2625   -0.5038 C   0  0  0  0  0  0  0  0  0  0  0  0
   -5.6864   -1.8624   -1.3621 O   0  0  0  0  0  0  0  0  0  0  0  0
   -6.3249   -1.0903   -2.3539 C   0  0  0  0  0  0  0  0  0  0  0  0
   -4.3547   -2.0752    0.5606 C   0  0  0  0  0  0  0  0  0  0  0  0
   -4.7521   -3.3738    0.5721 O   0  0  0  0  0  0  0  0  0  0  0  0
   -4.4191   -4.1626    1.5552 C   0  0  0  0  0  0  0  0  0  0  0  0
   -3.5099   -1.5251    1.5035 C   0  0  0  0  0  0  0  0  0  0  0  0
   -3.1026   -0.2211    1.4345 C   0  0  0  0  0  0  0  0  0  0  0  0
   -2.4568    2.2715   -1.1586 C   0  0  0  0  0  0  0  0  0  0  0  0
   -1.5274    1.1514   -1.6598 C   0  0  0  0  0  0  0  0  0  0  0  0
   -0.2091    1.1257   -0.9877 C   0  0  0  0  0  0  0  0  0  0  0  0
    0.4174    0.0350   -0.5628 N   0  0  0  0  0  0  0  0  0  0  0  0
    1.8012    0.0978   -0.1561 C   0  0  0  0  0  0  0  0  0  0  0  0
    2.7429   -0.4008   -1.2699 C   0  0  0  0  0  0  0  0  0  0  0  0
    4.1748   -0.2103   -0.8550 C   0  0  0  0  0  0  0  0  0  0  0  0
    4.8111    1.0026   -1.0636 C   0  0  0  0  0  0  0  0  0  0  0  0
    6.1237    1.1941   -0.6616 C   0  0  0  0  0  0  0  0  0  0  0  0
    6.8269    0.1739   -0.0372 C   0  0  0  0  0  0  0  0  0  0  0  0
    8.1017    0.2463    0.3889 O   0  0  0  0  0  0  0  0  0  0  0  0
    8.8288    1.4352    0.1811 C   0  0  0  0  0  0  0  0  0  0  0  0
    6.1806   -1.0731    0.1861 C   0  0  0  0  0  0  0  0  0  0  0  0
    6.9351   -2.0091    0.7959 O   0  0  0  0  0  0  0  0  0  0  0  0
    6.3922   -3.2866    1.0296 C   0  0  0  0  0  0  0  0  0  0  0  0
    4.8668   -1.2403   -0.2229 C   0  0  0  0  0  0  0  0  0  0  0  0
   -0.2079   -1.2658   -0.5821 C   0  0  0  0  0  0  0  0  0  0  0  0
   -4.2861    2.9596    0.4740 C   0  0  0  0  0  0  0  0  0  0  0  0
   -4.9474    2.6990    1.8253 C   0  0  0  0  0  0  0  0  0  0  0  0
   -3.9453    4.4417    0.3455 C   0  0  0  0  0  0  0  0  0  0  0  0
   -4.7444    0.6770   -1.3809 H   0  0  0  0  0  0  0  0  0  0  0  0
   -6.8844   -0.2617   -1.9124 H   0  0  0  0  0  0  0  0  0  0  0  0
   -7.0148   -1.7689   -2.8516 H   0  0  0  0  0  0  0  0  0  0  0  0
   -5.6092   -0.7037   -3.0848 H   0  0  0  0  0  0  0  0  0  0  0  0
   -3.9905   -3.7608    2.4615 H   0  0  0  0  0  0  0  0  0  0  0  0
   -4.7666   -5.1767    1.4770 H   0  0  0  0  0  0  0  0  0  0  0  0
   -2.4206   -4.4174    0.9815 H   0  0  0  0  0  0  0  0  0  0  0  0
   -1.7154   -4.2202    0.6614 H   0  0  0  0  0  0  0  0  0  0  0  0
   -2.4683    0.1913    2.2045 H   0  0  0  0  0  0  0  0  0  0  0  0
   -3.2722    2.3803   -1.8728 H   0  0  0  0  0  0  0  0  0  0  0  0
   -1.9043    3.2118   -1.1447 H   0  0  0  0  0  0  0  0  0  0  0  0
   -2.0344    0.1912   -1.5830 H   0  0  0  0  0  0  0  0  0  0  0  0
   -1.3454    1.3479   -2.7247 H   0  0  0  0  0  0  0  0  0  0  0  0
   -1.0228    1.7177    0.9360 H   0  0  0  0  0  0  0  0  0  0  0  0
    0.3561    2.0459   -0.9660 H   0  0  0  0  0  0  0  0  0  0  0  0
    1.9416   -0.5112    0.7409 H   0  0  0  0  0  0  0  0  0  0  0  0
    2.0601    1.1302    0.0878 H   0  0  0  0  0  0  0  0  0  0  0  0
    2.5410    0.1697   -2.1784 H   0  0  0  0  0  0  0  0  0  0  0  0
    2.5464   -1.4541   -1.4725 H   0  0  0  0  0  0  0  0  0  0  0  0
    4.2895    1.8088   -1.5568 H   0  0  0  0  0  0  0  0  0  0  0  0
    6.5941    2.1461   -0.8446 H   0  0  0  0  0  0  0  0  0  0  0  0
    8.3776    2.2789    0.7122 H   0  0  0  0  0  0  0  0  0  0  0  0
    8.9099    1.6741   -0.8835 H   0  0  0  0  0  0  0  0  0  0  0  0
    9.8213    1.2447    0.5847 H   0  0  0  0  0  0  0  0  0  0  0  0
    7.1850   -3.8578    1.5085 H   0  0  0  0  0  0  0  0  0  0  0  0
    5.5270   -3.2393    1.6986 H   0  0  0  0  0  0  0  0  0  0  0  0
    6.1066   -3.7782    0.0944 H   0  0  0  0  0  0  0  0  0  0  0  0
    4.3700   -2.1848   -0.0655 H   0  0  0  0  0  0  0  0  0  0  0  0
   -0.3792   -1.6081   -1.6050 H   0  0  0  0  0  0  0  0  0  0  0  0
   -1.1646   -1.2383   -0.0541 H   0  0  0  0  0  0  0  0  0  0  0  0
    0.4406   -1.9797   -0.0813 H   0  0  0  0  0  0  0  0  0  0  0  0
   -5.0106    2.7088   -0.3098 H   0  0  0  0  0  0  0  0  0  0  0  0
   -4.2688    2.9661    2.6289 H   0  0  0  0  0  0  0  0  0  0  0  0
   -5.2278    1.6539    1.9326 H   0  0  0  0  0  0  0  0  0  0  0  0
   -5.8452    3.3051    1.9140 H   0  0  0  0  0  0  0  0  0  0  0  0
   -3.2070    4.7238    1.0896 H   0  0  0  0  0  0  0  0  0  0  0  0
   -3.5714    4.6894   -0.6443 H   0  0  0  0  0  0  0  0  0  0  0  0
   -4.8434    5.0289    0.5184 H   0  0  0  0  0  0  0  0  0  0  0  0
   -1.1687    3.1631    2.7713 H   0  0  0  0  0  0  0  0  0  0  0  0
  1  2  2  0  0  0  0
  2  3  1  0  0  0  0
  3  4  1  0  0  0  0
  4  5  4  0  0  0  0
  5  6  4  0  0  0  0
  6  7  1  0  0  0  0
  7  8  1  0  0  0  0
  6  9  4  0  0  0  0
  9 10  1  0  0  0  0
 10 11  4  0  0  0  0
  9 12  4  0  0  0  0
  4 13  4  0  0  0  0
 12 13  4  0  0  0  0
  3 14  1  0  0  0  0
 14 15  1  0  0  0  0
 15 16  1  0  0  0  0
 16 17  4  0  0  0  0
 17 18  1  0  0  0  0
 18 19  1  0  0  0  0
 19 20  1  0  0  0  0
 20 21  4  0  0  0  0
 21 22  4  0  0  0  0
 22 23  4  0  0  0  0
 23 24  1  0  0  0  0
 24 25  1  0  0  0  0
 23 26  4  0  0  0  0
 26 27  1  0  0  0  0
 27 28  1  0  0  0  0
 20 29  4  0  0  0  0
 26 29  4  0  0  0  0
 17 30  1  0  0  0  0
  3 31  1  0  0  0  0
 31 32  1  0  0  0  0
 31 33  1  0  0  0  0
  5 34  1  0  0  0  0
  8 35  1  0  0  0  0
  8 36  1  0  0  0  0
  8 37  1  0  0  0  0
 11 38  1  0  0  0  0
 11 39  1  0  0  0  0
 40 41  1  0  0  0  0
 13 42  1  0  0  0  0
 14 43  1  0  0  0  0
 14 44  1  0  0  0  0
 15 45  1  0  0  0  0
 15 46  1  0  0  0  0
  2 47  1  0  0  0  0
 16 48  1  0  0  0  0
 18 49  1  0  0  0  0
 18 50  1  0  0  0  0
 19 51  1  0  0  0  0
 19 52  1  0  0  0  0
 21 53  1  0  0  0  0
 22 54  1  0  0  0  0
 25 55  1  0  0  0  0
 25 56  1  0  0  0  0
 25 57  1  0  0  0  0
 28 58  1  0  0  0  0
 28 59  1  0  0  0  0
 28 60  1  0  0  0  0
 29 61  1  0  0  0  0
 30 62  1  0  0  0  0
 30 63  1  0  0  0  0
 30 64  1  0  0  0  0
 31 65  1  0  0  0  0
 32 66  1  0  0  0  0
 32 67  1  0  0  0  0
 32 68  1  0  0  0  0
 33 69  1  0  0  0  0
 33 70  1  0  0  0  0
 33 71  1  0  0  0  0
  1 72  1  0  0  0  0
M  CHG  1   1   1
M  END
