 xtb: 6.6.1 (8d0f1dd)
          06052419573D

 25 25  0     0  0            999 V2000
    3.1386   -0.4391    1.1122 C   0  0  0  0  0  0  0  0  0  0  0  0
    2.3022   -0.6730   -0.0523 N   0  0  0  0  0  0  0  0  0  0  0  0
    2.8998   -1.3558   -1.1972 C   0  0  0  0  0  0  0  0  0  0  0  0
    3.9975   -1.9077   -1.2164 N   0  0  0  0  0  0  0  0  0  0  0  0
   -0.1477    0.0363   -0.0699 C   0  0  0  0  0  0  0  0  0  0  0  0
    1.0743   -0.3871   -0.0652 C   0  0  0  0  0  0  0  0  0  0  0  0
   -0.5752    1.4813   -0.4832 C   0  0  0  0  0  0  0  0  0  0  0  0
    0.1516    2.3607   -0.8212 O   0  0  0  0  0  0  0  0  0  0  0  0
   -1.9155    1.4545   -0.3184 N   0  0  0  0  0  0  0  0  0  0  0  0
   -2.8031    2.5749   -0.5598 C   0  0  0  0  0  0  0  0  0  0  0  0
   -2.4040    0.2179    0.1226 C   0  0  0  0  0  0  0  0  0  0  0  0
   -3.5348   -0.0685    0.3534 O   0  0  0  0  0  0  0  0  0  0  0  0
   -1.2965   -0.6139    0.2531 N   0  0  0  0  0  0  0  0  0  0  0  0
   -1.3691   -1.9863    0.6886 C   0  0  0  0  0  0  0  0  0  0  0  0
    3.3855   -1.3895    1.5912 H   0  0  0  0  0  0  0  0  0  0  0  0
    4.0577    0.0586    0.7985 H   0  0  0  0  0  0  0  0  0  0  0  0
    2.6144    0.1932    1.8260 H   0  0  0  0  0  0  0  0  0  0  0  0
    2.2598   -1.3619   -2.0694 H   0  0  0  0  0  0  0  0  0  0  0  0
   -2.2766    3.5041   -0.3532 H   0  0  0  0  0  0  0  0  0  0  0  0
   -3.1468    2.5727   -1.5946 H   0  0  0  0  0  0  0  0  0  0  0  0
   -3.6627    2.4684    0.1010 H   0  0  0  0  0  0  0  0  0  0  0  0
   -0.8253   -2.1211    1.6246 H   0  0  0  0  0  0  0  0  0  0  0  0
   -0.9551   -2.6484   -0.0732 H   0  0  0  0  0  0  0  0  0  0  0  0
   -2.4198   -2.2242    0.8440 H   0  0  0  0  0  0  0  0  0  0  0  0
    4.6112   -1.9278   -0.4101 H   0  0  0  0  0  0  0  0  0  0  0  0
  1  2  1  0  0  0  0
  2  3  1  0  0  0  0
  3  4  2  0  0  0  0
  2  6  2  0  0  0  0
  5  6  2  0  0  0  0
  5  7  1  0  0  0  0
  7  8  2  0  0  0  0
  7  9  4  0  0  0  0
  9 10  1  0  0  0  0
  9 11  1  0  0  0  0
 11 12  2  0  0  0  0
  5 13  1  0  0  0  0
 11 13  1  0  0  0  0
 13 14  1  0  0  0  0
  1 15  1  0  0  0  0
  1 16  1  0  0  0  0
  1 17  1  0  0  0  0
  3 18  1  0  0  0  0
 10 19  1  0  0  0  0
 10 20  1  0  0  0  0
 10 21  1  0  0  0  0
 14 22  1  0  0  0  0
 14 23  1  0  0  0  0
 14 24  1  0  0  0  0
  4 25  1  0  0  0  0
M  CHG  1   1   1
M  END
