 xtb: 6.6.1 (8d0f1dd)
          06052420003D

 25 25  0     0  0            999 V2000
    3.8889    0.6354   -0.5847 C   0  0  0  0  0  0  0  0  0  0  0  0
    2.8073   -0.2684   -0.3155 N   0  0  0  0  0  0  0  0  0  0  0  0
    2.7103   -1.5317   -0.6748 C   0  0  0  0  0  0  0  0  0  0  0  0
    1.5611   -2.0648   -0.2496 N   0  0  0  0  0  0  0  0  0  0  0  0
    0.8037   -1.1017    0.4607 C   0  0  0  0  0  0  0  0  0  0  0  0
    1.6495    0.0916    0.3955 C   0  0  0  0  0  0  0  0  0  0  0  0
    1.3640    1.3125    0.8342 C   0  0  0  0  0  0  0  0  0  0  0  0
    1.1308    2.3598    1.2547 O   0  0  0  0  0  0  0  0  0  0  0  0
   -3.1249    1.3748   -0.4256 N   0  0  0  0  0  0  0  0  0  0  0  0
   -4.3794    2.0011   -0.3164 C   0  0  0  0  0  0  0  0  0  0  0  0
   -1.9594    1.3659   -0.6083 C   0  0  0  0  0  0  0  0  0  0  0  0
   -0.8248    1.1626   -0.7758 O   0  0  0  0  0  0  0  0  0  0  0  0
   -0.3043   -1.2057    1.0393 N   0  0  0  0  0  0  0  0  0  0  0  0
   -1.1299   -2.3628    1.1016 C   0  0  0  0  0  0  0  0  0  0  0  0
    4.2527    1.0715    0.3475 H   0  0  0  0  0  0  0  0  0  0  0  0
    4.7030    0.1007   -1.0707 H   0  0  0  0  0  0  0  0  0  0  0  0
    3.5520    1.4440   -1.2367 H   0  0  0  0  0  0  0  0  0  0  0  0
    3.4601   -2.0610   -1.2349 H   0  0  0  0  0  0  0  0  0  0  0  0
   -4.3007    2.9491    0.2205 H   0  0  0  0  0  0  0  0  0  0  0  0
   -4.7922    2.1787   -1.3113 H   0  0  0  0  0  0  0  0  0  0  0  0
   -5.0432    1.3300    0.2297 H   0  0  0  0  0  0  0  0  0  0  0  0
   -0.5838   -3.3106    1.0526 H   0  0  0  0  0  0  0  0  0  0  0  0
   -1.8567   -2.3280    0.2864 H   0  0  0  0  0  0  0  0  0  0  0  0
   -1.6815   -2.3151    2.0402 H   0  0  0  0  0  0  0  0  0  0  0  0
    1.2583   -3.0095   -0.4273 H   0  0  0  0  0  0  0  0  0  0  0  0
  1  2  1  0  0  0  0
  2  3  4  0  0  0  0
  3  4  4  0  0  0  0
  4  5  1  0  0  0  0
  2  6  1  0  0  0  0
  5  6  1  0  0  0  0
  6  7  4  0  0  0  0
  7  8  2  0  0  0  0
  9 10  1  0  0  0  0
  9 11  2  0  0  0  0
  9 12  1  0  0  0  0
 11 12  2  0  0  0  0
  5 13  2  0  0  0  0
 13 14  1  0  0  0  0
  1 15  1  0  0  0  0
  1 16  1  0  0  0  0
  1 17  1  0  0  0  0
  3 18  1  0  0  0  0
 10 19  1  0  0  0  0
 10 20  1  0  0  0  0
 10 21  1  0  0  0  0
 14 22  1  0  0  0  0
 14 23  1  0  0  0  0
 14 24  1  0  0  0  0
  4 25  1  0  0  0  0
M  CHG  1   1   1
M  END
