          24
 
C              3.23678634        1.11885388        0.02758080
N              2.27715256        0.04770777        0.00975344
C              2.54104430       -1.25620564        0.01031959
N              1.38398580       -1.95885791        0.01073345
C              0.35010470       -1.07041990        0.01165564
C              0.90676645        0.20259304        0.01368220
C              0.11079307        1.39208247       -0.00224504
O              0.48996881        2.54109082       -0.03017884
N             -1.29462455        1.07754432        0.01752087
C             -2.14844761        2.11007445        0.03343018
C             -1.86466533       -0.22848136        0.01265310
O             -3.05380340       -0.38624763        0.01208822
N             -0.97834349       -1.30254602        0.00510563
C             -1.51709872       -2.64984266       -0.00332096
H              3.70905225        1.18838504        1.00877645
H              4.00745625        0.94704187       -0.72256581
H              2.72143498        2.05578880       -0.17985510
H              3.52042482       -1.69118158        0.00755305
H             -1.73570658        3.10245188        0.04205083
H             -3.20235991        1.90871948        0.04243852
H             -1.23799969       -3.17881486        0.90843784
H             -1.16365571       -3.19377592       -0.87907767
H             -2.60225843       -2.57101463       -0.04826619
H              1.31454838       -2.96640246        0.01173605
