          19
 
C              4.74437167       -0.10220810       -0.62694750
C              5.40373059        1.08234654       -0.79238043
C              6.76016251        1.12476069       -0.46507269
C              7.40663625       -0.00698193        0.01034817
O              8.70964085       -0.07292743        0.36140559
C              9.50504490        1.08511780        0.26469624
C              6.68722214       -1.22447564        0.16013557
O              7.39902408       -2.27148907        0.62290806
C              6.76637011       -3.51734076        0.78680752
C              5.33140924       -1.25172840       -0.16971912
H              4.91756819        1.97086182       -1.16348812
H              7.29503515        2.05248893       -0.59079523
H              9.11952954        1.89031365        0.89786757
H              9.57912233        1.43571180       -0.76935717
H             10.49193196        0.79085455        0.61691688
H              7.53648605       -4.19094677        1.15814581
H              5.95326445       -3.46108871        1.51816469
H              6.38017042       -3.89889320       -0.16389912
H              4.76785811       -2.16581264       -0.06394260
