 xtb: 6.6.1 (8d0f1dd)
          04062411133D

 72 71  0     0  0            999 V2000
   -2.0659    2.0324    2.2449 N   0  0  0  0  0  0  0  0  0  0  0  0
   -1.9058    2.3368    1.0203 C   0  0  0  0  0  0  0  0  0  0  0  0
   -2.6382    1.6954   -0.0581 C   0  0  0  0  0  0  0  0  0  0  0  0
   -3.3294    0.4186    0.1605 C   0  0  0  0  0  0  0  0  0  0  0  0
   -4.3983    0.0308   -0.6584 C   0  0  0  0  0  0  0  0  0  0  0  0
   -5.0337   -1.1858   -0.4914 C   0  0  0  0  0  0  0  0  0  0  0  0
   -6.0776   -1.6306   -1.2237 O   0  0  0  0  0  0  0  0  0  0  0  0
   -6.5807   -0.8315   -2.2675 C   0  0  0  0  0  0  0  0  0  0  0  0
   -4.5917   -2.0759    0.5269 C   0  0  0  0  0  0  0  0  0  0  0  0
   -5.2596   -3.2426    0.6085 O   0  0  0  0  0  0  0  0  0  0  0  0
   -4.9107   -4.1593    1.6205 C   0  0  0  0  0  0  0  0  0  0  0  0
   -3.5323   -1.6878    1.3347 C   0  0  0  0  0  0  0  0  0  0  0  0
   -2.9125   -0.4626    1.1557 C   0  0  0  0  0  0  0  0  0  0  0  0
   -2.6087    2.2973   -1.2696 C   0  0  0  0  0  0  0  0  0  0  0  0
   -0.8208    0.8302   -2.6479 C   0  0  0  0  0  0  0  0  0  0  0  0
    0.2935    0.9415   -1.9099 C   0  0  0  0  0  0  0  0  0  0  0  0
    0.7204    0.0801   -0.9479 N   0  0  0  0  0  0  0  0  0  0  0  0
    2.0733    0.1885   -0.4709 C   0  0  0  0  0  0  0  0  0  0  0  0
    3.0860   -0.5065   -1.4093 C   0  0  0  0  0  0  0  0  0  0  0  0
    4.4888   -0.2738   -0.9344 C   0  0  0  0  0  0  0  0  0  0  0  0
    5.1315    0.9262   -1.2058 C   0  0  0  0  0  0  0  0  0  0  0  0
    6.4155    1.1667   -0.7454 C   0  0  0  0  0  0  0  0  0  0  0  0
    7.0892    0.2080   -0.0007 C   0  0  0  0  0  0  0  0  0  0  0  0
    8.3336    0.3320    0.4978 O   0  0  0  0  0  0  0  0  0  0  0  0
    9.0569    1.5164    0.2552 C   0  0  0  0  0  0  0  0  0  0  0  0
    6.4425   -1.0283    0.2785 C   0  0  0  0  0  0  0  0  0  0  0  0
    7.1714   -1.9068    0.9944 O   0  0  0  0  0  0  0  0  0  0  0  0
    6.6292   -3.1713    1.2918 C   0  0  0  0  0  0  0  0  0  0  0  0
    5.1536   -1.2419   -0.1872 C   0  0  0  0  0  0  0  0  0  0  0  0
    0.0383   -1.1741   -0.7545 C   0  0  0  0  0  0  0  0  0  0  0  0
   -5.0250    3.0100    1.0524 C   0  0  0  0  0  0  0  0  0  0  0  0
   -4.9998    2.3163    2.3280 C   0  0  0  0  0  0  0  0  0  0  0  0
   -4.6463    4.4227    0.9205 C   0  0  0  0  0  0  0  0  0  0  0  0
   -4.7465    0.7034   -1.4247 H   0  0  0  0  0  0  0  0  0  0  0  0
   -6.9689    0.1219   -1.8947 H   0  0  0  0  0  0  0  0  0  0  0  0
   -7.3969   -1.4032   -2.7047 H   0  0  0  0  0  0  0  0  0  0  0  0
   -5.8209   -0.6441   -3.0327 H   0  0  0  0  0  0  0  0  0  0  0  0
   -5.0299   -3.7205    2.6155 H   0  0  0  0  0  0  0  0  0  0  0  0
   -5.5991   -4.9945    1.5090 H   0  0  0  0  0  0  0  0  0  0  0  0
   -3.8838   -4.5171    1.4988 H   0  0  0  0  0  0  0  0  0  0  0  0
   -3.1776   -2.3418    2.1146 H   0  0  0  0  0  0  0  0  0  0  0  0
   -2.0947   -0.1902    1.8010 H   0  0  0  0  0  0  0  0  0  0  0  0
   -3.1603    1.9258   -2.1117 H   0  0  0  0  0  0  0  0  0  0  0  0
   -2.0812    3.2235   -1.4160 H   0  0  0  0  0  0  0  0  0  0  0  0
   -1.4700   -0.0238   -2.5978 H   0  0  0  0  0  0  0  0  0  0  0  0
   -1.0397    1.5680   -3.3952 H   0  0  0  0  0  0  0  0  0  0  0  0
   -1.2436    3.1432    0.6916 H   0  0  0  0  0  0  0  0  0  0  0  0
    0.9250    1.8116   -2.0307 H   0  0  0  0  0  0  0  0  0  0  0  0
    2.1367   -0.2568    0.5253 H   0  0  0  0  0  0  0  0  0  0  0  0
    2.3374    1.2456   -0.3871 H   0  0  0  0  0  0  0  0  0  0  0  0
    2.9589   -0.0963   -2.4133 H   0  0  0  0  0  0  0  0  0  0  0  0
    2.8689   -1.5746   -1.4432 H   0  0  0  0  0  0  0  0  0  0  0  0
    4.6328    1.6824   -1.7927 H   0  0  0  0  0  0  0  0  0  0  0  0
    6.8888    2.1070   -0.9765 H   0  0  0  0  0  0  0  0  0  0  0  0
    8.5533    2.3885    0.6837 H   0  0  0  0  0  0  0  0  0  0  0  0
    9.2164    1.6759   -0.8155 H   0  0  0  0  0  0  0  0  0  0  0  0
   10.0180    1.3775    0.7465 H   0  0  0  0  0  0  0  0  0  0  0  0
    7.4034   -3.6984    1.8461 H   0  0  0  0  0  0  0  0  0  0  0  0
    5.7327   -3.0869    1.9142 H   0  0  0  0  0  0  0  0  0  0  0  0
    6.3918   -3.7300    0.3813 H   0  0  0  0  0  0  0  0  0  0  0  0
    4.6546   -2.1761    0.0175 H   0  0  0  0  0  0  0  0  0  0  0  0
    0.1140   -1.8186   -1.6358 H   0  0  0  0  0  0  0  0  0  0  0  0
   -1.0176   -0.9931   -0.5467 H   0  0  0  0  0  0  0  0  0  0  0  0
    0.4730   -1.6915    0.0977 H   0  0  0  0  0  0  0  0  0  0  0  0
   -5.3800    2.4985    0.1731 H   0  0  0  0  0  0  0  0  0  0  0  0
   -3.9550    1.9853    2.5289 H   0  0  0  0  0  0  0  0  0  0  0  0
   -5.6274    1.4302    2.3349 H   0  0  0  0  0  0  0  0  0  0  0  0
   -5.2553    2.9809    3.1530 H   0  0  0  0  0  0  0  0  0  0  0  0
   -4.0888    4.7703    1.7866 H   0  0  0  0  0  0  0  0  0  0  0  0
   -4.0702    4.5961    0.0125 H   0  0  0  0  0  0  0  0  0  0  0  0
   -5.5461    5.0414    0.8333 H   0  0  0  0  0  0  0  0  0  0  0  0
   -1.5326    2.5740    2.9173 H   0  0  0  0  0  0  0  0  0  0  0  0
  1  2  2  0  0  0  0
  2  3  1  0  0  0  0
  3  4  1  0  0  0  0
  4  5  4  0  0  0  0
  5  6  4  0  0  0  0
  6  7  1  0  0  0  0
  7  8  1  0  0  0  0
  6  9  4  0  0  0  0
  9 10  1  0  0  0  0
 10 11  1  0  0  0  0
  9 12  4  0  0  0  0
  4 13  4  0  0  0  0
 12 13  4  0  0  0  0
  3 14  2  0  0  0  0
 15 16  2  0  0  0  0
 16 17  4  0  0  0  0
 17 18  1  0  0  0  0
 18 19  1  0  0  0  0
 19 20  1  0  0  0  0
 20 21  4  0  0  0  0
 21 22  4  0  0  0  0
 22 23  4  0  0  0  0
 23 24  1  0  0  0  0
 24 25  1  0  0  0  0
 23 26  4  0  0  0  0
 26 27  1  0  0  0  0
 27 28  1  0  0  0  0
 20 29  4  0  0  0  0
 26 29  4  0  0  0  0
 17 30  1  0  0  0  0
 31 32  1  0  0  0  0
 31 33  1  0  0  0  0
  5 34  1  0  0  0  0
  8 35  1  0  0  0  0
  8 36  1  0  0  0  0
  8 37  1  0  0  0  0
 11 38  1  0  0  0  0
 11 39  1  0  0  0  0
 11 40  1  0  0  0  0
 12 41  1  0  0  0  0
 13 42  1  0  0  0  0
 14 43  1  0  0  0  0
 14 44  1  0  0  0  0
 15 45  1  0  0  0  0
 15 46  1  0  0  0  0
  2 47  1  0  0  0  0
 16 48  1  0  0  0  0
 18 49  1  0  0  0  0
 18 50  1  0  0  0  0
 19 51  1  0  0  0  0
 19 52  1  0  0  0  0
 21 53  1  0  0  0  0
 22 54  1  0  0  0  0
 25 55  1  0  0  0  0
 25 56  1  0  0  0  0
 25 57  1  0  0  0  0
 28 58  1  0  0  0  0
 28 59  1  0  0  0  0
 28 60  1  0  0  0  0
 29 61  1  0  0  0  0
 30 62  1  0  0  0  0
 30 63  1  0  0  0  0
 30 64  1  0  0  0  0
 31 65  1  0  0  0  0
 32 66  1  0  0  0  0
 32 67  1  0  0  0  0
 32 68  1  0  0  0  0
 33 69  1  0  0  0  0
 33 70  1  0  0  0  0
 33 71  1  0  0  0  0
  1 72  1  0  0  0  0
M  CHG  1   1   1
M  END
