 xtb: 6.6.1 (8d0f1dd)
          06052419593D

 25 25  0     0  0            999 V2000
    3.0575    1.0844   -0.1445 C   0  0  0  0  0  0  0  0  0  0  0  0
    2.2007    0.0704   -0.0969 N   0  0  0  0  0  0  0  0  0  0  0  0
    2.4698   -1.2556   -0.1028 C   0  0  0  0  0  0  0  0  0  0  0  0
    1.3101   -1.9649   -0.0624 N   0  0  0  0  0  0  0  0  0  0  0  0
    0.2740   -1.0837   -0.0286 C   0  0  0  0  0  0  0  0  0  0  0  0
    0.8129    0.1912   -0.0425 C   0  0  0  0  0  0  0  0  0  0  0  0
   -0.0172    1.3751   -0.0353 C   0  0  0  0  0  0  0  0  0  0  0  0
    0.3763    2.5163   -0.0478 O   0  0  0  0  0  0  0  0  0  0  0  0
   -1.3726    1.0387   -0.0118 N   0  0  0  0  0  0  0  0  0  0  0  0
   -2.3322    2.1337   -0.0246 C   0  0  0  0  0  0  0  0  0  0  0  0
   -1.9348   -0.2252    0.0023 C   0  0  0  0  0  0  0  0  0  0  0  0
   -3.1206   -0.4000    0.0122 O   0  0  0  0  0  0  0  0  0  0  0  0
   -1.0466   -1.3230    0.0059 N   0  0  0  0  0  0  0  0  0  0  0  0
   -1.5925   -2.6661    0.0135 C   0  0  0  0  0  0  0  0  0  0  0  0
    5.5506    1.7852    1.1546 H   0  0  0  0  0  0  0  0  0  0  0  0
    4.1168    0.8980   -0.1823 H   0  0  0  0  0  0  0  0  0  0  0  0
    2.6618    2.0837   -0.1351 H   0  0  0  0  0  0  0  0  0  0  0  0
    3.4481   -1.6863   -0.1465 H   0  0  0  0  0  0  0  0  0  0  0  0
   -1.7782    3.0690   -0.0063 H   0  0  0  0  0  0  0  0  0  0  0  0
   -2.9472    2.0760   -0.9225 H   0  0  0  0  0  0  0  0  0  0  0  0
   -2.9872    2.0621    0.8436 H   0  0  0  0  0  0  0  0  0  0  0  0
   -1.2780   -3.2015    0.9098 H   0  0  0  0  0  0  0  0  0  0  0  0
   -1.2823   -3.2098   -0.8789 H   0  0  0  0  0  0  0  0  0  0  0  0
   -2.6786   -2.5773    0.0166 H   0  0  0  0  0  0  0  0  0  0  0  0
    1.2500   -2.9723   -0.0585 H   0  0  0  0  0  0  0  0  0  0  0  0
  1  2  4  0  0  0  0
  2  3  4  0  0  0  0
  3  4  4  0  0  0  0
  4  5  1  0  0  0  0
  2  6  1  0  0  0  0
  5  6  4  0  0  0  0
  6  7  1  0  0  0  0
  7  8  2  0  0  0  0
  7  9  1  0  0  0  0
  9 10  1  0  0  0  0
  9 11  1  0  0  0  0
 11 12  2  0  0  0  0
  5 13  4  0  0  0  0
 11 13  1  0  0  0  0
 13 14  1  0  0  0  0
  1 16  1  0  0  0  0
  1 17  1  0  0  0  0
  3 18  1  0  0  0  0
 10 19  1  0  0  0  0
 10 20  1  0  0  0  0
 10 21  1  0  0  0  0
 14 22  1  0  0  0  0
 14 23  1  0  0  0  0
 14 24  1  0  0  0  0
  4 25  1  0  0  0  0
M  CHG  1   1   1
M  END
