          20
 
C              3.17839862        2.38772438        0.13782229
N              2.84655385        1.00206224       -0.08605119
C              3.78135795        0.13114622       -0.28278805
C              1.06908009       -0.66295018       -0.10218940
C              1.51857133        0.61476990       -0.06747215
C              0.36164660        1.55428310       -0.02615295
O              0.51848663        2.75493299       -0.01881759
N             -0.89801433        0.97901506       -0.00272124
C             -2.04482291        1.87648682        0.02818932
C             -1.19880363       -0.37849597       -0.00432372
O             -2.31157193       -0.81897264        0.05352931
N             -0.05879940       -1.16407626       -0.07515563
H              2.76113175        2.72644002        1.08692677
H              4.25836797        2.51475066        0.14773119
H              2.74270480        3.01331272       -0.64273793
H              4.81444984        0.43021156       -0.27373774
H             -1.67464501        2.89930150        0.06901488
H             -2.64994161        1.73180829       -0.86678214
H             -2.65744739        1.65985748        0.90282445
H              3.52968202       -0.90369987       -0.45180886
