           7
 
N             -3.50959797        1.48449742       -0.08523398
C             -3.72711306        2.87090999       -0.10541799
C             -3.89865363        0.36447884       -0.07195422
O             -4.06715221       -0.78188670       -0.05754279
H             -2.75294864        3.36030036       -0.09022362
H             -4.26305743        3.16539758       -1.01048587
H             -4.30031211        3.18509600        0.77023388
