          62
 
N             -0.54738197        1.81752288        2.12328680
C             -1.19625691        1.39590400        1.19728321
C             -2.09324741        1.15379104        0.26165640
C             -2.98499027        0.00962648        0.34771728
C             -4.05176501       -0.15769855       -0.54579104
C             -4.89768594       -1.24800565       -0.45647886
O             -5.94791678       -1.48646871       -1.27170761
C             -6.24937480       -0.56614814       -2.29189827
C             -4.69100719       -2.22150536        0.55953640
O             -5.56388504       -3.24650959        0.56435624
C             -5.45953853       -4.23372899        1.56386726
C             -3.63716425       -2.04599040        1.44856608
C             -2.80051291       -0.95160994        1.34562197
C             -2.09198826        2.08372950       -0.93016540
C             -1.54638175        1.41605615       -2.19704858
C             -0.04355963        1.13505044       -2.12488636
N              0.32027743        0.19669977       -1.08327936
C              1.68621602        0.29882046       -0.62979056
C              2.75484399       -0.09413926       -1.67857036
C              4.12866697       -0.04052502       -1.08434017
C              4.87449726        1.12904222       -1.11827643
C              6.14314148        1.18098205       -0.56334245
C              6.69498741        0.06177454        0.04483477
O              7.91714972       -0.00427173        0.60759487
C              8.75091241        1.13022101        0.57684078
C              5.93688940       -1.14084867        0.09217013
O              6.54769798       -2.18066521        0.69597588
C              5.90130671       -3.42991671        0.73887372
C              4.66956921       -1.16724524       -0.46860209
C             -0.13265427       -1.15507132       -1.31375870
H             -4.22742634        0.58261754       -1.30762714
H             -6.49277862        0.42060083       -1.88425719
H             -7.12301897       -0.96869054       -2.80077579
H             -5.42661429       -0.47309242       -3.00826595
H             -5.57964428       -3.80522442        2.56345056
H             -6.27161893       -4.93195917        1.37044049
H             -4.50430003       -4.76450359        1.50606366
H             -3.46117545       -2.76645625        2.23059370
H             -1.98681019       -0.83833007        2.04555342
H             -3.11063527        2.43272900       -1.11223399
H             -1.48211168        2.95874178       -0.69810125
H             -2.08771880        0.49198024       -2.39541704
H             -1.71311538        2.08775263       -3.04167438
H              0.47666564        2.07481187       -1.92148474
H              0.28116644        0.77446761       -3.11514637
H              1.79856872       -0.34966766        0.24385041
H              1.86734836        1.33040122       -0.31361834
H              2.69036699        0.59281044       -2.52333516
H              2.54441936       -1.10439655       -2.03184628
H              4.47167451        2.00989118       -1.59469830
H              6.70245022        2.10073085       -0.61638238
H              8.30571494        1.97058965        1.11853018
H              8.97491898        1.43527055       -0.44990783
H              9.67191593        0.82940686        1.07267809
H              6.59998480       -4.10358677        1.23159215
H              4.97418057       -3.38349014        1.31945715
H              5.68493606       -3.80488272       -0.26628879
H              4.09019977       -2.07710665       -0.44624810
H              0.20506429       -1.55746433       -2.27784930
H             -1.22056050       -1.18686970       -1.29258148
H              0.23573647       -1.79739618       -0.51653067
H              0.41425370        1.58750994        2.32379886
