 xtb: 6.6.1 (8d0f1dd)
          06052419583D

 25 25  0     0  0            999 V2000
    3.7957    0.7412    0.4950 C   0  0  0  0  0  0  0  0  0  0  0  0
    2.5047    0.4543    0.2820 N   0  0  0  0  0  0  0  0  0  0  0  0
    2.1829   -0.8229   -0.0421 C   0  0  0  0  0  0  0  0  0  0  0  0
    0.9357   -1.3298   -0.2361 N   0  0  0  0  0  0  0  0  0  0  0  0
   -0.2741   -0.7743   -0.4822 C   0  0  0  0  0  0  0  0  0  0  0  0
    1.5874    1.4651    0.4461 C   0  0  0  0  0  0  0  0  0  0  0  0
    0.2422    1.6005    0.0761 C   0  0  0  0  0  0  0  0  0  0  0  0
   -0.3594    2.6527    0.2741 O   0  0  0  0  0  0  0  0  0  0  0  0
   -0.5020    0.5629   -0.5855 N   0  0  0  0  0  0  0  0  0  0  0  0
   -1.7525    1.0085   -1.1744 C   0  0  0  0  0  0  0  0  0  0  0  0
   -1.7898   -1.0335    1.7292 C   0  0  0  0  0  0  0  0  0  0  0  0
   -1.8004   -0.6203    2.8239 O   0  0  0  0  0  0  0  0  0  0  0  0
   -2.2247   -1.6369    0.6844 N   0  0  0  0  0  0  0  0  0  0  0  0
   -1.4294   -1.7281   -0.5603 C   0  0  0  0  0  0  0  0  0  0  0  0
    4.0806    1.7404    0.7544 H   0  0  0  0  0  0  0  0  0  0  0  0
    4.5373   -0.0271    0.4018 H   0  0  0  0  0  0  0  0  0  0  0  0
    1.9908    2.3731    0.8663 H   0  0  0  0  0  0  0  0  0  0  0  0
    2.9871   -1.5362   -0.0714 H   0  0  0  0  0  0  0  0  0  0  0  0
   -1.7028    2.0951   -1.2515 H   0  0  0  0  0  0  0  0  0  0  0  0
   -1.8673    0.5829   -2.1713 H   0  0  0  0  0  0  0  0  0  0  0  0
   -2.6166    0.7644   -0.5531 H   0  0  0  0  0  0  0  0  0  0  0  0
   -1.0764   -2.7580   -0.6773 H   0  0  0  0  0  0  0  0  0  0  0  0
   -2.0958   -1.5028   -1.3967 H   0  0  0  0  0  0  0  0  0  0  0  0
   -3.1332   -2.1104    0.6764 H   0  0  0  0  0  0  0  0  0  0  0  0
    0.9404   -2.3425   -0.2764 H   0  0  0  0  0  0  0  0  0  0  0  0
  1  2  4  0  0  0  0
  2  3  1  0  0  0  0
  3  4  1  0  0  0  0
  4  5  4  0  0  0  0
  2  6  1  0  0  0  0
  6  7  4  0  0  0  0
  7  8  2  0  0  0  0
  5  9  4  0  0  0  0
  7  9  1  0  0  0  0
  9 10  1  0  0  0  0
 11 12  2  0  0  0  0
 11 13  4  0  0  0  0
  5 14  1  0  0  0  0
 13 14  1  0  0  0  0
  1 15  1  0  0  0  0
  1 16  1  0  0  0  0
  6 17  1  0  0  0  0
  3 18  1  0  0  0  0
 10 19  1  0  0  0  0
 10 20  1  0  0  0  0
 10 21  1  0  0  0  0
 14 22  1  0  0  0  0
 14 23  1  0  0  0  0
 13 24  1  0  0  0  0
  4 25  1  0  0  0  0
M  CHG  1   1   1
M  END
