 xtb: 6.6.1 (8d0f1dd)
          06052419593D

 25 26  0     0  0            999 V2000
    3.7181    0.6603    0.0666 C   0  0  0  0  0  0  0  0  0  0  0  0
    2.5742   -0.2125    0.0399 N   0  0  0  0  0  0  0  0  0  0  0  0
    2.5777   -1.5396    0.0333 C   0  0  0  0  0  0  0  0  0  0  0  0
    1.3052   -1.9990    0.0072 N   0  0  0  0  0  0  0  0  0  0  0  0
    0.4723   -0.9183   -0.0024 C   0  0  0  0  0  0  0  0  0  0  0  0
    1.2708    0.2107    0.0178 C   0  0  0  0  0  0  0  0  0  0  0  0
    0.6675    1.5581    0.0156 C   0  0  0  0  0  0  0  0  0  0  0  0
    1.2965    2.5852    0.0302 O   0  0  0  0  0  0  0  0  0  0  0  0
   -0.7010    1.4875   -0.0032 N   0  0  0  0  0  0  0  0  0  0  0  0
   -3.3962    1.6960   -0.0363 C   0  0  0  0  0  0  0  0  0  0  0  0
   -1.4111    0.4180   -0.0188 C   0  0  0  0  0  0  0  0  0  0  0  0
   -2.7172    0.4367   -0.0281 O   0  0  0  0  0  0  0  0  0  0  0  0
   -0.8812   -0.8742   -0.0253 N   0  0  0  0  0  0  0  0  0  0  0  0
   -1.6888   -2.0775   -0.0493 C   0  0  0  0  0  0  0  0  0  0  0  0
    4.3051    0.4879    0.9686 H   0  0  0  0  0  0  0  0  0  0  0  0
    4.3497    0.4841   -0.8040 H   0  0  0  0  0  0  0  0  0  0  0  0
    3.3638    1.6912    0.0562 H   0  0  0  0  0  0  0  0  0  0  0  0
    3.4511   -2.1603    0.0467 H   0  0  0  0  0  0  0  0  0  0  0  0
   -2.6855    2.5165    0.0645 H   0  0  0  0  0  0  0  0  0  0  0  0
   -3.9376    1.7793   -0.9748 H   0  0  0  0  0  0  0  0  0  0  0  0
   -4.1028    1.6917    0.7968 H   0  0  0  0  0  0  0  0  0  0  0  0
   -1.5184   -2.6664    0.8534 H   0  0  0  0  0  0  0  0  0  0  0  0
   -1.4515   -2.6737   -0.9317 H   0  0  0  0  0  0  0  0  0  0  0  0
   -2.7360   -1.7913   -0.0897 H   0  0  0  0  0  0  0  0  0  0  0  0
    1.0357   -2.9721   -0.0018 H   0  0  0  0  0  0  0  0  0  0  0  0
  1  2  1  0  0  0  0
  2  3  4  0  0  0  0
  3  4  4  0  0  0  0
  4  5  1  0  0  0  0
  2  6  1  0  0  0  0
  5  6  4  0  0  0  0
  6  7  1  0  0  0  0
  7  8  2  0  0  0  0
  7  9  1  0  0  0  0
  9 11  2  0  0  0  0
 10 12  1  0  0  0  0
 11 12  4  0  0  0  0
  5 13  1  0  0  0  0
 11 13  1  0  0  0  0
 13 14  1  0  0  0  0
  1 15  1  0  0  0  0
  1 16  1  0  0  0  0
  1 17  1  0  0  0  0
  3 18  1  0  0  0  0
 10 19  1  0  0  0  0
 10 20  1  0  0  0  0
 10 21  1  0  0  0  0
 14 22  1  0  0  0  0
 14 23  1  0  0  0  0
 14 24  1  0  0  0  0
  4 25  1  0  0  0  0
M  CHG  1   1   1
M  END
