 xtb: 6.6.1 (8d0f1dd)
          04062411163D

 72 73  0     0  0            999 V2000
   -1.8900    2.7921    2.2399 N   0  0  0  0  0  0  0  0  0  0  0  0
   -1.8095    2.0721    1.2197 C   0  0  0  0  0  0  0  0  0  0  0  0
   -2.9526    1.8118    0.2738 C   0  0  0  0  0  0  0  0  0  0  0  0
   -3.3604    0.3498    0.3424 C   0  0  0  0  0  0  0  0  0  0  0  0
   -4.2805   -0.1513   -0.5793 C   0  0  0  0  0  0  0  0  0  0  0  0
   -4.7618   -1.4537   -0.4878 C   0  0  0  0  0  0  0  0  0  0  0  0
   -5.6681   -2.0243   -1.3090 O   0  0  0  0  0  0  0  0  0  0  0  0
   -6.2881   -1.2340   -2.3012 C   0  0  0  0  0  0  0  0  0  0  0  0
   -4.2719   -2.2663    0.5460 C   0  0  0  0  0  0  0  0  0  0  0  0
   -4.8311   -3.5777    0.6505 O   0  0  0  0  0  0  0  0  0  0  0  0
   -5.6981   -3.7249    1.8719 C   0  0  0  0  0  0  0  0  0  0  0  0
   -3.3446   -1.7928    1.4553 C   0  0  0  0  0  0  0  0  0  0  0  0
   -2.8885   -0.4888    1.3487 C   0  0  0  0  0  0  0  0  0  0  0  0
   -2.4258    2.1691   -1.1405 C   0  0  0  0  0  0  0  0  0  0  0  0
   -1.4367    1.1535   -1.7426 C   0  0  0  0  0  0  0  0  0  0  0  0
   -0.0983    1.1777   -1.1081 C   0  0  0  0  0  0  0  0  0  0  0  0
    0.6012    0.1010   -0.7325 N   0  0  0  0  0  0  0  0  0  0  0  0
    1.9832    0.2240   -0.3365 C   0  0  0  0  0  0  0  0  0  0  0  0
    2.9499   -0.2047   -1.4572 C   0  0  0  0  0  0  0  0  0  0  0  0
    4.3700   -0.0372   -0.9943 C   0  0  0  0  0  0  0  0  0  0  0  0
    5.0442    1.1546   -1.1941 C   0  0  0  0  0  0  0  0  0  0  0  0
    6.3432    1.3204   -0.7369 C   0  0  0  0  0  0  0  0  0  0  0  0
    6.9911    0.2958   -0.0641 C   0  0  0  0  0  0  0  0  0  0  0  0
    8.2479    0.3456    0.4229 O   0  0  0  0  0  0  0  0  0  0  0  0
    9.0047    1.5198    0.2424 C   0  0  0  0  0  0  0  0  0  0  0  0
    6.3063   -0.9304    0.1482 C   0  0  0  0  0  0  0  0  0  0  0  0
    7.0117   -1.8754    0.8080 O   0  0  0  0  0  0  0  0  0  0  0  0
    6.4260   -3.1336    1.0360 C   0  0  0  0  0  0  0  0  0  0  0  0
    5.0096   -1.0733   -0.3161 C   0  0  0  0  0  0  0  0  0  0  0  0
    0.0495   -1.2290   -0.8029 C   0  0  0  0  0  0  0  0  0  0  0  0
   -4.2226    2.6610    0.5913 C   0  0  0  0  0  0  0  0  0  0  0  0
   -4.8251    2.2872    1.9442 C   0  0  0  0  0  0  0  0  0  0  0  0
   -3.9677    4.1649    0.5409 C   0  0  0  0  0  0  0  0  0  0  0  0
   -4.6496    0.4890   -1.3622 H   0  0  0  0  0  0  0  0  0  0  0  0
   -6.8007   -0.3742   -1.8622 H   0  0  0  0  0  0  0  0  0  0  0  0
   -7.0185   -1.8860   -2.7756 H   0  0  0  0  0  0  0  0  0  0  0  0
   -5.5662   -0.8942   -3.0493 H   0  0  0  0  0  0  0  0  0  0  0  0
   -6.4779   -2.9773    1.8228 H   0  0  0  0  0  0  0  0  0  0  0  0
   -6.0639   -4.7431    1.8645 H   0  0  0  0  0  0  0  0  0  0  0  0
   -4.1276   -4.2390    0.7739 H   0  0  0  0  0  0  0  0  0  0  0  0
   -3.0081   -2.4304    2.2579 H   0  0  0  0  0  0  0  0  0  0  0  0
   -2.1928   -0.1162    2.0826 H   0  0  0  0  0  0  0  0  0  0  0  0
   -3.2737    2.2582   -1.8195 H   0  0  0  0  0  0  0  0  0  0  0  0
   -1.9413    3.1447   -1.0920 H   0  0  0  0  0  0  0  0  0  0  0  0
   -1.8736    0.1566   -1.7190 H   0  0  0  0  0  0  0  0  0  0  0  0
   -1.3090    1.4347   -2.7966 H   0  0  0  0  0  0  0  0  0  0  0  0
   -0.8757    1.5919    0.8749 H   0  0  0  0  0  0  0  0  0  0  0  0
    0.4190    2.1234   -1.0678 H   0  0  0  0  0  0  0  0  0  0  0  0
    2.1586   -0.3962    0.5475 H   0  0  0  0  0  0  0  0  0  0  0  0
    2.1905    1.2621   -0.0699 H   0  0  0  0  0  0  0  0  0  0  0  0
    2.7660    0.4150   -2.3362 H   0  0  0  0  0  0  0  0  0  0  0  0
    2.7620   -1.2460   -1.7226 H   0  0  0  0  0  0  0  0  0  0  0  0
    4.5646    1.9655   -1.7211 H   0  0  0  0  0  0  0  0  0  0  0  0
    6.8451    2.2571   -0.9153 H   0  0  0  0  0  0  0  0  0  0  0  0
    8.5351    2.3790    0.7312 H   0  0  0  0  0  0  0  0  0  0  0  0
    9.1558    1.7402   -0.8187 H   0  0  0  0  0  0  0  0  0  0  0  0
    9.9672    1.3211    0.7099 H   0  0  0  0  0  0  0  0  0  0  0  0
    7.1829   -3.7185    1.5551 H   0  0  0  0  0  0  0  0  0  0  0  0
    5.5355   -3.0543    1.6685 H   0  0  0  0  0  0  0  0  0  0  0  0
    6.1653   -3.6322    0.0969 H   0  0  0  0  0  0  0  0  0  0  0  0
    4.4832   -2.0033   -0.1665 H   0  0  0  0  0  0  0  0  0  0  0  0
   -0.0739   -1.5555   -1.8388 H   0  0  0  0  0  0  0  0  0  0  0  0
   -0.9218   -1.2640   -0.3035 H   0  0  0  0  0  0  0  0  0  0  0  0
    0.7216   -1.9201   -0.2999 H   0  0  0  0  0  0  0  0  0  0  0  0
   -4.9590    2.4188   -0.1837 H   0  0  0  0  0  0  0  0  0  0  0  0
   -4.1302    2.5326    2.7401 H   0  0  0  0  0  0  0  0  0  0  0  0
   -5.0608    1.2268    1.9950 H   0  0  0  0  0  0  0  0  0  0  0  0
   -5.7429    2.8478    2.0998 H   0  0  0  0  0  0  0  0  0  0  0  0
   -3.2106    4.4433    1.2667 H   0  0  0  0  0  0  0  0  0  0  0  0
   -3.6569    4.4912   -0.4479 H   0  0  0  0  0  0  0  0  0  0  0  0
   -4.8869    4.6884    0.7903 H   0  0  0  0  0  0  0  0  0  0  0  0
   -1.0416    2.9241    2.7826 H   0  0  0  0  0  0  0  0  0  0  0  0
  1  2  2  0  0  0  0
  2  3  1  0  0  0  0
  3  4  1  0  0  0  0
  4  5  4  0  0  0  0
  5  6  4  0  0  0  0
  6  7  1  0  0  0  0
  7  8  1  0  0  0  0
  6  9  4  0  0  0  0
  9 10  1  0  0  0  0
 10 11  1  0  0  0  0
  9 12  4  0  0  0  0
  4 13  4  0  0  0  0
 12 13  4  0  0  0  0
  3 14  1  0  0  0  0
 14 15  1  0  0  0  0
 15 16  1  0  0  0  0
 16 17  4  0  0  0  0
 17 18  1  0  0  0  0
 18 19  1  0  0  0  0
 19 20  1  0  0  0  0
 20 21  4  0  0  0  0
 21 22  4  0  0  0  0
 22 23  4  0  0  0  0
 23 24  1  0  0  0  0
 24 25  1  0  0  0  0
 23 26  4  0  0  0  0
 26 27  1  0  0  0  0
 27 28  1  0  0  0  0
 20 29  4  0  0  0  0
 26 29  4  0  0  0  0
 17 30  1  0  0  0  0
  3 31  1  0  0  0  0
 31 32  1  0  0  0  0
 31 33  1  0  0  0  0
  5 34  1  0  0  0  0
  8 35  1  0  0  0  0
  8 36  1  0  0  0  0
  8 37  1  0  0  0  0
 11 38  1  0  0  0  0
 11 39  1  0  0  0  0
 10 40  1  0  0  0  0
 12 41  1  0  0  0  0
 13 42  1  0  0  0  0
 14 43  1  0  0  0  0
 14 44  1  0  0  0  0
 15 45  1  0  0  0  0
 15 46  1  0  0  0  0
  2 47  1  0  0  0  0
 16 48  1  0  0  0  0
 18 49  1  0  0  0  0
 18 50  1  0  0  0  0
 19 51  1  0  0  0  0
 19 52  1  0  0  0  0
 21 53  1  0  0  0  0
 22 54  1  0  0  0  0
 25 55  1  0  0  0  0
 25 56  1  0  0  0  0
 25 57  1  0  0  0  0
 28 58  1  0  0  0  0
 28 59  1  0  0  0  0
 28 60  1  0  0  0  0
 29 61  1  0  0  0  0
 30 62  1  0  0  0  0
 30 63  1  0  0  0  0
 30 64  1  0  0  0  0
 31 65  1  0  0  0  0
 32 66  1  0  0  0  0
 32 67  1  0  0  0  0
 32 68  1  0  0  0  0
 33 69  1  0  0  0  0
 33 70  1  0  0  0  0
 33 71  1  0  0  0  0
  1 72  1  0  0  0  0
M  CHG  1   1   1
M  END
