 xtb: 6.6.1 (8d0f1dd)
          06052419593D

 25 25  0     0  0            999 V2000
    3.4507    2.0142    0.0167 C   0  0  0  0  0  0  0  0  0  0  0  0
    2.7634    0.7489    0.0145 N   0  0  0  0  0  0  0  0  0  0  0  0
    3.3161   -0.4573    0.0215 C   0  0  0  0  0  0  0  0  0  0  0  0
    2.3655   -1.4068    0.0143 N   0  0  0  0  0  0  0  0  0  0  0  0
    1.1409   -0.7884    0.0022 C   0  0  0  0  0  0  0  0  0  0  0  0
    1.4062    0.5883    0.0020 C   0  0  0  0  0  0  0  0  0  0  0  0
    0.3099    1.5331   -0.0025 C   0  0  0  0  0  0  0  0  0  0  0  0
    0.4267    2.7430   -0.0001 O   0  0  0  0  0  0  0  0  0  0  0  0
   -0.9127    0.8861   -0.0084 N   0  0  0  0  0  0  0  0  0  0  0  0
   -2.1096    1.7016   -0.0079 C   0  0  0  0  0  0  0  0  0  0  0  0
   -1.1253   -0.5209   -0.0133 C   0  0  0  0  0  0  0  0  0  0  0  0
   -2.2602   -0.9414   -0.0221 O   0  0  0  0  0  0  0  0  0  0  0  0
   -0.0442   -1.3405   -0.0063 N   0  0  0  0  0  0  0  0  0  0  0  0
   -4.0197   -4.1527   -0.0145 C   0  0  0  0  0  0  0  0  0  0  0  0
    4.0754    2.1046    0.9057 H   0  0  0  0  0  0  0  0  0  0  0  0
    4.0822    2.1038   -0.8674 H   0  0  0  0  0  0  0  0  0  0  0  0
    2.7086    2.8127    0.0133 H   0  0  0  0  0  0  0  0  0  0  0  0
    4.3727   -0.6474    0.0322 H   0  0  0  0  0  0  0  0  0  0  0  0
   -1.8108    2.7481    0.0122 H   0  0  0  0  0  0  0  0  0  0  0  0
   -2.7015    1.4934   -0.9006 H   0  0  0  0  0  0  0  0  0  0  0  0
   -2.7194    1.4629    0.8647 H   0  0  0  0  0  0  0  0  0  0  0  0
   -4.2568   -4.6375    0.9161 H   0  0  0  0  0  0  0  0  0  0  0  0
   -4.2524   -4.6396   -0.9413 H   0  0  0  0  0  0  0  0  0  0  0  0
   -3.5537   -3.1828   -0.0180 H   0  0  0  0  0  0  0  0  0  0  0  0
    2.5085   -2.4072    0.0181 H   0  0  0  0  0  0  0  0  0  0  0  0
  1  2  1  0  0  0  0
  2  3  4  0  0  0  0
  3  4  4  0  0  0  0
  4  5  1  0  0  0  0
  2  6  1  0  0  0  0
  5  6  4  0  0  0  0
  6  7  1  0  0  0  0
  7  8  2  0  0  0  0
  7  9  1  0  0  0  0
  9 10  1  0  0  0  0
  9 11  1  0  0  0  0
 11 12  2  0  0  0  0
  5 13  4  0  0  0  0
 11 13  1  0  0  0  0
  1 15  1  0  0  0  0
  1 16  1  0  0  0  0
  1 17  1  0  0  0  0
  3 18  1  0  0  0  0
 10 19  1  0  0  0  0
 10 20  1  0  0  0  0
 10 21  1  0  0  0  0
 14 22  1  0  0  0  0
 14 23  1  0  0  0  0
 14 24  1  0  0  0  0
  4 25  1  0  0  0  0
M  CHG  1   1   1
M  END
