 xtb: 6.6.1 (8d0f1dd)
          06052419583D

 25 26  0     0  0            999 V2000
    3.2546    1.2100    0.3105 C   0  0  0  0  0  0  0  0  0  0  0  0
    2.2584    0.2319    0.0057 N   0  0  0  0  0  0  0  0  0  0  0  0
    2.1751   -0.9833    0.7745 C   0  0  0  0  0  0  0  0  0  0  0  0
    1.2449   -1.8951    0.1307 N   0  0  0  0  0  0  0  0  0  0  0  0
    0.2720   -0.9713    0.0775 C   0  0  0  0  0  0  0  0  0  0  0  0
    1.0660    0.0568    0.8131 C   0  0  0  0  0  0  0  0  0  0  0  0
   -1.6142    1.6716   -1.6757 C   0  0  0  0  0  0  0  0  0  0  0  0
   -1.7107    1.9661   -2.7819 O   0  0  0  0  0  0  0  0  0  0  0  0
   -1.4951    1.1718   -0.5273 N   0  0  0  0  0  0  0  0  0  0  0  0
   -1.2638    1.9434    0.6976 C   0  0  0  0  0  0  0  0  0  0  0  0
   -1.9997   -0.2466   -0.3819 C   0  0  0  0  0  0  0  0  0  0  0  0
   -3.1730   -0.4498   -0.4583 O   0  0  0  0  0  0  0  0  0  0  0  0
   -1.0146   -1.1908   -0.2603 N   0  0  0  0  0  0  0  0  0  0  0  0
   -1.4337   -2.5814   -0.4567 C   0  0  0  0  0  0  0  0  0  0  0  0
    3.4770    1.2789    1.3811 H   0  0  0  0  0  0  0  0  0  0  0  0
    4.1659    0.9421   -0.2245 H   0  0  0  0  0  0  0  0  0  0  0  0
    2.9078    2.1796   -0.0443 H   0  0  0  0  0  0  0  0  0  0  0  0
    2.9116   -1.3149    1.4812 H   0  0  0  0  0  0  0  0  0  0  0  0
   -1.0253    2.9729    0.4424 H   0  0  0  0  0  0  0  0  0  0  0  0
   -2.1595    1.9153    1.3177 H   0  0  0  0  0  0  0  0  0  0  0  0
   -0.4164    1.4839    1.2235 H   0  0  0  0  0  0  0  0  0  0  0  0
   -1.0737   -3.1952    0.3674 H   0  0  0  0  0  0  0  0  0  0  0  0
   -1.0426   -2.9594   -1.4017 H   0  0  0  0  0  0  0  0  0  0  0  0
   -2.5208   -2.6177   -0.4829 H   0  0  0  0  0  0  0  0  0  0  0  0
    1.3703   -2.8004   -0.2959 H   0  0  0  0  0  0  0  0  0  0  0  0
  1  2  1  0  0  0  0
  2  3  1  0  0  0  0
  3  4  1  0  0  0  0
  4  5  4  0  0  0  0
  2  6  1  0  0  0  0
  3  6  1  0  0  0  0
  5  6  1  0  0  0  0
  7  8  2  0  0  0  0
  7  9  2  0  0  0  0
  9 10  1  0  0  0  0
  9 11  1  0  0  0  0
 11 12  2  0  0  0  0
  5 13  4  0  0  0  0
 11 13  1  0  0  0  0
 13 14  1  0  0  0  0
  1 15  1  0  0  0  0
  1 16  1  0  0  0  0
  1 17  1  0  0  0  0
  3 18  1  0  0  0  0
 10 19  1  0  0  0  0
 10 20  1  0  0  0  0
 10 21  1  0  0  0  0
 14 22  1  0  0  0  0
 14 23  1  0  0  0  0
 14 24  1  0  0  0  0
  4 25  1  0  0  0  0
M  CHG  1   1   1
M  END
