          21
 
C              3.39593743        1.64491712       -0.00031341
N              2.61651759        0.43406857        0.00065145
C              3.07672686       -0.81040006       -0.00056019
N              2.05666217       -1.68522535        0.00169420
C              0.88228780       -0.97654186        0.00434398
C              1.25108715        0.37622914        0.00388239
C              0.22930959        1.40167867        0.00058602
O              0.43672539        2.59930674       -0.00276521
N             -1.03734799        0.84740602        0.00047686
C             -2.17010481        1.75120622       -0.00779606
C             -1.35666700       -0.53802378        0.00495943
O             -2.52291473       -0.86209420        0.00629690
N             -0.34165230       -1.43656784        0.00616914
H              4.02575889        1.69113043        0.88836922
H              4.03198781        1.68576150       -0.88469492
H              2.71480830        2.49593323       -0.00491497
H              4.11583078       -1.08024723       -0.00339485
H             -1.79278400        2.77207208       -0.00417254
H             -2.77728784        1.57400311       -0.89658106
H             -2.79193619        1.57228899        0.87035916
H              2.12540140       -2.69350861        0.00138774
