 xtb: 6.6.1 (8d0f1dd)
          06052420003D

 25 25  0     0  0            999 V2000
    3.0703    1.0677    0.2230 C   0  0  0  0  0  0  0  0  0  0  0  0
    2.2030    0.0643    0.1725 N   0  0  0  0  0  0  0  0  0  0  0  0
    2.4647   -1.2642    0.1931 C   0  0  0  0  0  0  0  0  0  0  0  0
    1.3028   -1.9669    0.1218 N   0  0  0  0  0  0  0  0  0  0  0  0
    0.2732   -1.0807    0.0608 C   0  0  0  0  0  0  0  0  0  0  0  0
    0.8169    0.1922    0.0913 C   0  0  0  0  0  0  0  0  0  0  0  0
   -0.0081    1.3780    0.0605 C   0  0  0  0  0  0  0  0  0  0  0  0
    0.3875    2.5186    0.0823 O   0  0  0  0  0  0  0  0  0  0  0  0
   -1.3650    1.0459    0.0054 N   0  0  0  0  0  0  0  0  0  0  0  0
   -2.3233    2.1415   -0.0008 C   0  0  0  0  0  0  0  0  0  0  0  0
   -1.9305   -0.2144   -0.0395 C   0  0  0  0  0  0  0  0  0  0  0  0
   -3.1154   -0.3874   -0.0963 O   0  0  0  0  0  0  0  0  0  0  0  0
   -1.0460   -1.3166   -0.0133 N   0  0  0  0  0  0  0  0  0  0  0  0
   -1.5932   -2.6575   -0.0501 C   0  0  0  0  0  0  0  0  0  0  0  0
    4.1220    0.8562    0.2996 H   0  0  0  0  0  0  0  0  0  0  0  0
    5.4583    1.7705   -1.4536 H   0  0  0  0  0  0  0  0  0  0  0  0
    2.6919    2.0740    0.1738 H   0  0  0  0  0  0  0  0  0  0  0  0
    3.4414   -1.6968    0.2575 H   0  0  0  0  0  0  0  0  0  0  0  0
   -1.7698    3.0774    0.0108 H   0  0  0  0  0  0  0  0  0  0  0  0
   -2.9504    2.0816   -0.8905 H   0  0  0  0  0  0  0  0  0  0  0  0
   -2.9678    2.0731    0.8763 H   0  0  0  0  0  0  0  0  0  0  0  0
   -1.3121   -3.2104    0.8467 H   0  0  0  0  0  0  0  0  0  0  0  0
   -1.2512   -3.1862   -0.9405 H   0  0  0  0  0  0  0  0  0  0  0  0
   -2.6786   -2.5672   -0.0863 H   0  0  0  0  0  0  0  0  0  0  0  0
    1.2399   -2.9744    0.1264 H   0  0  0  0  0  0  0  0  0  0  0  0
  1  2  4  0  0  0  0
  2  3  4  0  0  0  0
  3  4  4  0  0  0  0
  4  5  1  0  0  0  0
  2  6  1  0  0  0  0
  5  6  4  0  0  0  0
  6  7  1  0  0  0  0
  7  8  2  0  0  0  0
  7  9  1  0  0  0  0
  9 10  1  0  0  0  0
  9 11  1  0  0  0  0
 11 12  2  0  0  0  0
  5 13  4  0  0  0  0
 11 13  1  0  0  0  0
 13 14  1  0  0  0  0
  1 15  1  0  0  0  0
  1 17  1  0  0  0  0
  3 18  1  0  0  0  0
 10 19  1  0  0  0  0
 10 20  1  0  0  0  0
 10 21  1  0  0  0  0
 14 22  1  0  0  0  0
 14 23  1  0  0  0  0
 14 24  1  0  0  0  0
  4 25  1  0  0  0  0
M  CHG  1   1   1
M  END
