 xtb: 6.6.1 (8d0f1dd)
          06052419583D

 25 25  0     0  0            999 V2000
    2.9544    1.8189   -0.0502 C   0  0  0  0  0  0  0  0  0  0  0  0
    2.3502    0.7081    0.0436 N   0  0  0  0  0  0  0  0  0  0  0  0
    2.7169   -2.0156    0.2240 C   0  0  0  0  0  0  0  0  0  0  0  0
    1.4248   -1.9675   -0.0733 N   0  0  0  0  0  0  0  0  0  0  0  0
    0.5796   -0.8867   -0.0247 C   0  0  0  0  0  0  0  0  0  0  0  0
    1.0243    0.4440    0.0232 C   0  0  0  0  0  0  0  0  0  0  0  0
    0.0467    1.5341    0.0439 C   0  0  0  0  0  0  0  0  0  0  0  0
    0.3569    2.7090    0.0840 O   0  0  0  0  0  0  0  0  0  0  0  0
   -1.2825    1.1444    0.0048 N   0  0  0  0  0  0  0  0  0  0  0  0
   -2.3056    2.1760    0.0297 C   0  0  0  0  0  0  0  0  0  0  0  0
   -1.7372   -0.1519   -0.0444 C   0  0  0  0  0  0  0  0  0  0  0  0
   -2.9132   -0.4161   -0.0662 O   0  0  0  0  0  0  0  0  0  0  0  0
   -0.7659   -1.1574   -0.0675 N   0  0  0  0  0  0  0  0  0  0  0  0
   -1.2655   -2.5212   -0.0816 C   0  0  0  0  0  0  0  0  0  0  0  0
    4.0298    1.8113    0.0324 H   0  0  0  0  0  0  0  0  0  0  0  0
    3.2158   -1.1331    0.5958 H   0  0  0  0  0  0  0  0  0  0  0  0
    2.4501    2.7818   -0.1910 H   0  0  0  0  0  0  0  0  0  0  0  0
    3.2426   -2.9417    0.0807 H   0  0  0  0  0  0  0  0  0  0  0  0
   -1.8138    3.1454    0.0826 H   0  0  0  0  0  0  0  0  0  0  0  0
   -2.9186    2.1112   -0.8707 H   0  0  0  0  0  0  0  0  0  0  0  0
   -2.9544    2.0316    0.8945 H   0  0  0  0  0  0  0  0  0  0  0  0
   -0.8896   -3.0856    0.7728 H   0  0  0  0  0  0  0  0  0  0  0  0
   -1.0239   -3.0258   -1.0194 H   0  0  0  0  0  0  0  0  0  0  0  0
   -2.3528   -2.4626   -0.0066 H   0  0  0  0  0  0  0  0  0  0  0  0
    0.9913   -2.8325   -0.3854 H   0  0  0  0  0  0  0  0  0  0  0  0
  1  2  2  0  0  0  0
  3  4  4  0  0  0  0
  4  5  1  0  0  0  0
  2  6  4  0  0  0  0
  5  6  4  0  0  0  0
  6  7  1  0  0  0  0
  7  8  2  0  0  0  0
  7  9  1  0  0  0  0
  9 10  1  0  0  0  0
  9 11  1  0  0  0  0
 11 12  2  0  0  0  0
  5 13  1  0  0  0  0
 11 13  1  0  0  0  0
 13 14  1  0  0  0  0
  1 15  1  0  0  0  0
  3 16  1  0  0  0  0
  1 17  1  0  0  0  0
  3 18  1  0  0  0  0
 10 19  1  0  0  0  0
 10 20  1  0  0  0  0
 10 21  1  0  0  0  0
 14 22  1  0  0  0  0
 14 23  1  0  0  0  0
 14 24  1  0  0  0  0
  4 25  1  0  0  0  0
M  CHG  1   1   1
M  END
