 xtb: 6.6.1 (8d0f1dd)
          04062411113D

 72 72  0     0  0            999 V2000
   -1.0271    4.6314    1.8244 N   0  0  0  0  0  0  0  0  0  0  0  0
   -1.6858    4.0085    1.0258 C   0  0  0  0  0  0  0  0  0  0  0  0
   -2.4277    3.5473    0.0510 C   0  0  0  0  0  0  0  0  0  0  0  0
   -4.0743    0.0304    1.0020 C   0  0  0  0  0  0  0  0  0  0  0  0
   -4.8237   -0.3739   -0.0927 C   0  0  0  0  0  0  0  0  0  0  0  0
   -4.9281   -1.7202   -0.4134 C   0  0  0  0  0  0  0  0  0  0  0  0
   -5.6335   -2.2279   -1.4418 O   0  0  0  0  0  0  0  0  0  0  0  0
   -6.3903   -1.3592   -2.2523 C   0  0  0  0  0  0  0  0  0  0  0  0
   -4.2560   -2.6772    0.3978 C   0  0  0  0  0  0  0  0  0  0  0  0
   -4.4296   -3.9613    0.0261 O   0  0  0  0  0  0  0  0  0  0  0  0
   -3.8992   -4.9885    0.8301 C   0  0  0  0  0  0  0  0  0  0  0  0
   -3.5035   -2.2458    1.4804 C   0  0  0  0  0  0  0  0  0  0  0  0
   -3.4139   -0.8929    1.7846 C   0  0  0  0  0  0  0  0  0  0  0  0
   -1.7938    3.0692   -1.2293 C   0  0  0  0  0  0  0  0  0  0  0  0
   -1.4726    1.5685   -1.1985 C   0  0  0  0  0  0  0  0  0  0  0  0
   -0.4474    1.2328   -0.1051 C   0  0  0  0  0  0  0  0  0  0  0  0
    0.3414    0.0766   -0.4573 N   0  0  0  0  0  0  0  0  0  0  0  0
    1.7255    0.0559   -0.0496 C   0  0  0  0  0  0  0  0  0  0  0  0
    2.6304   -0.4645   -1.1862 C   0  0  0  0  0  0  0  0  0  0  0  0
    4.0765   -0.2895   -0.8311 C   0  0  0  0  0  0  0  0  0  0  0  0
    4.7148    0.9240   -1.0544 C   0  0  0  0  0  0  0  0  0  0  0  0
    6.0444    1.1050   -0.7125 C   0  0  0  0  0  0  0  0  0  0  0  0
    6.7710    0.0728   -0.1323 C   0  0  0  0  0  0  0  0  0  0  0  0
    8.0637    0.1302    0.2329 O   0  0  0  0  0  0  0  0  0  0  0  0
    8.7935    1.3148    0.0086 C   0  0  0  0  0  0  0  0  0  0  0  0
    6.1254   -1.1733    0.1087 C   0  0  0  0  0  0  0  0  0  0  0  0
    6.9006   -2.1177    0.6746 O   0  0  0  0  0  0  0  0  0  0  0  0
    6.3648   -3.3967    0.9183 C   0  0  0  0  0  0  0  0  0  0  0  0
    4.7923   -1.3283   -0.2430 C   0  0  0  0  0  0  0  0  0  0  0  0
   -0.3463   -1.1810   -0.3240 C   0  0  0  0  0  0  0  0  0  0  0  0
   -3.9324    3.4830    0.1917 C   0  0  0  0  0  0  0  0  0  0  0  0
   -4.3831    2.8801    1.4675 C   0  0  0  0  0  0  0  0  0  0  0  0
   -4.5141    4.9160    0.0781 C   0  0  0  0  0  0  0  0  0  0  0  0
   -5.3386    0.3672   -0.6831 H   0  0  0  0  0  0  0  0  0  0  0  0
   -7.1404   -0.8180   -1.6676 H   0  0  0  0  0  0  0  0  0  0  0  0
   -6.8910   -1.9976   -2.9774 H   0  0  0  0  0  0  0  0  0  0  0  0
   -5.7514   -0.6444   -2.7805 H   0  0  0  0  0  0  0  0  0  0  0  0
   -4.2847   -4.9357    1.8528 H   0  0  0  0  0  0  0  0  0  0  0  0
   -4.2266   -5.9184    0.3692 H   0  0  0  0  0  0  0  0  0  0  0  0
   -2.8052   -4.9597    0.8496 H   0  0  0  0  0  0  0  0  0  0  0  0
   -2.9923   -2.9612    2.1039 H   0  0  0  0  0  0  0  0  0  0  0  0
   -2.8385   -0.5774    2.6411 H   0  0  0  0  0  0  0  0  0  0  0  0
   -2.4805    3.2688   -2.0540 H   0  0  0  0  0  0  0  0  0  0  0  0
   -0.8730    3.6255   -1.4144 H   0  0  0  0  0  0  0  0  0  0  0  0
   -2.3893    0.9976   -1.0431 H   0  0  0  0  0  0  0  0  0  0  0  0
   -1.0502    1.2851   -2.1635 H   0  0  0  0  0  0  0  0  0  0  0  0
   -0.9694    1.0815    0.8531 H   0  0  0  0  0  0  0  0  0  0  0  0
    0.2276    2.0839    0.0076 H   0  0  0  0  0  0  0  0  0  0  0  0
    1.8735   -0.5698    0.8426 H   0  0  0  0  0  0  0  0  0  0  0  0
    2.0442    1.0705    0.1968 H   0  0  0  0  0  0  0  0  0  0  0  0
    2.3966    0.1026   -2.0879 H   0  0  0  0  0  0  0  0  0  0  0  0
    2.4146   -1.5156   -1.3755 H   0  0  0  0  0  0  0  0  0  0  0  0
    4.1724    1.7372   -1.5119 H   0  0  0  0  0  0  0  0  0  0  0  0
    6.5130    2.0560   -0.9065 H   0  0  0  0  0  0  0  0  0  0  0  0
    8.3780    2.1537    0.5751 H   0  0  0  0  0  0  0  0  0  0  0  0
    8.8243    1.5708   -1.0545 H   0  0  0  0  0  0  0  0  0  0  0  0
    9.8025    1.1069    0.3594 H   0  0  0  0  0  0  0  0  0  0  0  0
    7.1762   -3.9748    1.3565 H   0  0  0  0  0  0  0  0  0  0  0  0
    5.5291   -3.3537    1.6238 H   0  0  0  0  0  0  0  0  0  0  0  0
    6.0373   -3.8764   -0.0091 H   0  0  0  0  0  0  0  0  0  0  0  0
    4.2961   -2.2706   -0.0716 H   0  0  0  0  0  0  0  0  0  0  0  0
   -1.2970   -1.1383   -0.8504 H   0  0  0  0  0  0  0  0  0  0  0  0
   -0.5475   -1.4311    0.7286 H   0  0  0  0  0  0  0  0  0  0  0  0
    0.2564   -1.9750   -0.7593 H   0  0  0  0  0  0  0  0  0  0  0  0
   -4.3338    2.9084   -0.6517 H   0  0  0  0  0  0  0  0  0  0  0  0
   -3.7876    3.0207    2.3531 H   0  0  0  0  0  0  0  0  0  0  0  0
   -4.0469    1.1115    1.2495 H   0  0  0  0  0  0  0  0  0  0  0  0
   -5.4434    2.7616    1.6158 H   0  0  0  0  0  0  0  0  0  0  0  0
   -4.1578    5.5286    0.9021 H   0  0  0  0  0  0  0  0  0  0  0  0
   -4.1946    5.3681   -0.8574 H   0  0  0  0  0  0  0  0  0  0  0  0
   -5.6001    4.8854    0.1022 H   0  0  0  0  0  0  0  0  0  0  0  0
   -0.5575    4.2417    2.6288 H   0  0  0  0  0  0  0  0  0  0  0  0
  1  2  2  0  0  0  0
  2  3  2  0  0  0  0
  4  5  4  0  0  0  0
  5  6  4  0  0  0  0
  6  7  1  0  0  0  0
  7  8  1  0  0  0  0
  6  9  4  0  0  0  0
  9 10  1  0  0  0  0
 10 11  1  0  0  0  0
  9 12  4  0  0  0  0
  4 13  4  0  0  0  0
 12 13  4  0  0  0  0
  3 14  1  0  0  0  0
 14 15  1  0  0  0  0
 15 16  1  0  0  0  0
 16 17  1  0  0  0  0
 17 18  1  0  0  0  0
 18 19  1  0  0  0  0
 19 20  1  0  0  0  0
 20 21  4  0  0  0  0
 21 22  4  0  0  0  0
 22 23  4  0  0  0  0
 23 24  1  0  0  0  0
 24 25  1  0  0  0  0
 23 26  4  0  0  0  0
 26 27  1  0  0  0  0
 27 28  1  0  0  0  0
 20 29  4  0  0  0  0
 26 29  4  0  0  0  0
 17 30  1  0  0  0  0
  3 31  1  0  0  0  0
 31 32  1  0  0  0  0
 31 33  1  0  0  0  0
  5 34  1  0  0  0  0
  8 35  1  0  0  0  0
  8 36  1  0  0  0  0
  8 37  1  0  0  0  0
 11 38  1  0  0  0  0
 11 39  1  0  0  0  0
 11 40  1  0  0  0  0
 12 41  1  0  0  0  0
 13 42  1  0  0  0  0
 14 43  1  0  0  0  0
 14 44  1  0  0  0  0
 15 45  1  0  0  0  0
 15 46  1  0  0  0  0
 16 47  1  0  0  0  0
 16 48  1  0  0  0  0
 18 49  1  0  0  0  0
 18 50  1  0  0  0  0
 19 51  1  0  0  0  0
 19 52  1  0  0  0  0
 21 53  1  0  0  0  0
 22 54  1  0  0  0  0
 25 55  1  0  0  0  0
 25 56  1  0  0  0  0
 25 57  1  0  0  0  0
 28 58  1  0  0  0  0
 28 59  1  0  0  0  0
 28 60  1  0  0  0  0
 29 61  1  0  0  0  0
 30 62  1  0  0  0  0
 30 63  1  0  0  0  0
 30 64  1  0  0  0  0
 31 65  1  0  0  0  0
 32 66  1  0  0  0  0
  4 67  1  0  0  0  0
 32 68  1  0  0  0  0
 33 69  1  0  0  0  0
 33 70  1  0  0  0  0
 33 71  1  0  0  0  0
  1 72  1  0  0  0  0
M  CHG  1   1   1
M  END
