           7
 
N             -2.86065901        1.78876555        0.33297187
C             -3.83423494        2.75913291        0.05765000
C             -1.95351802        1.34051780        0.94540955
O             -1.06359380        0.75076595        1.40574521
H             -3.38415344        3.75202071       -0.01527214
H             -4.29766261        2.50481792       -0.89669140
H             -4.60067686        2.76441772        0.83638073
