 xtb: 6.6.1 (8d0f1dd)
          04062411163D

 72 73  0     0  0            999 V2000
   -1.8576    2.8241    2.2134 N   0  0  0  0  0  0  0  0  0  0  0  0
   -1.8087    2.1330    1.1744 C   0  0  0  0  0  0  0  0  0  0  0  0
   -2.9599    1.9168    0.2321 C   0  0  0  0  0  0  0  0  0  0  0  0
   -3.4288    0.4718    0.3240 C   0  0  0  0  0  0  0  0  0  0  0  0
   -4.3793   -0.0047   -0.5813 C   0  0  0  0  0  0  0  0  0  0  0  0
   -4.8567   -1.3027   -0.5144 C   0  0  0  0  0  0  0  0  0  0  0  0
   -5.7850   -1.8348   -1.3368 O   0  0  0  0  0  0  0  0  0  0  0  0
   -6.4240   -1.0079   -2.2806 C   0  0  0  0  0  0  0  0  0  0  0  0
   -4.3588   -2.1807    0.4855 C   0  0  0  0  0  0  0  0  0  0  0  0
   -4.8740   -3.4272    0.4718 O   0  0  0  0  0  0  0  0  0  0  0  0
   -4.4988   -4.3341    1.4816 C   0  0  0  0  0  0  0  0  0  0  0  0
   -3.4133   -1.7032    1.3782 C   0  0  0  0  0  0  0  0  0  0  0  0
   -2.9582   -0.3924    1.2997 C   0  0  0  0  0  0  0  0  0  0  0  0
   -2.4106    2.2007   -1.1904 C   0  0  0  0  0  0  0  0  0  0  0  0
   -1.4641    1.1154   -1.7352 C   0  0  0  0  0  0  0  0  0  0  0  0
   -0.1270    1.1270   -1.1005 C   0  0  0  0  0  0  0  0  0  0  0  0
    0.5535    0.0472   -0.7127 N   0  0  0  0  0  0  0  0  0  0  0  0
    1.9321    0.1580   -0.3082 C   0  0  0  0  0  0  0  0  0  0  0  0
    2.9020   -0.2588   -1.4394 C   0  0  0  0  0  0  0  0  0  0  0  0
    4.3214   -0.1258   -0.9838 C   0  0  0  0  0  0  0  0  0  0  0  0
    5.0264    1.1648   -1.2598 C   0  0  0  0  0  0  0  0  0  0  0  0
    6.3464    1.2684   -0.6386 C   0  0  0  0  0  0  0  0  0  0  0  0
    6.9291    0.2796    0.0757 C   0  0  0  0  0  0  0  0  0  0  0  0
    8.1418    0.3571    0.6647 O   0  0  0  0  0  0  0  0  0  0  0  0
    8.8195    1.5833    0.5035 C   0  0  0  0  0  0  0  0  0  0  0  0
    6.2498   -0.9866    0.2223 C   0  0  0  0  0  0  0  0  0  0  0  0
    6.9338   -1.9353    0.8576 O   0  0  0  0  0  0  0  0  0  0  0  0
    6.3983   -3.2336    0.9937 C   0  0  0  0  0  0  0  0  0  0  0  0
    4.9479   -1.1221   -0.2946 C   0  0  0  0  0  0  0  0  0  0  0  0
   -0.0286   -1.2731   -0.7474 C   0  0  0  0  0  0  0  0  0  0  0  0
   -4.1748    2.8462    0.5269 C   0  0  0  0  0  0  0  0  0  0  0  0
   -4.8125    2.5213    1.8757 C   0  0  0  0  0  0  0  0  0  0  0  0
   -3.8239    4.3303    0.4668 C   0  0  0  0  0  0  0  0  0  0  0  0
   -4.7643    0.6560   -1.3400 H   0  0  0  0  0  0  0  0  0  0  0  0
   -6.9231   -0.1616   -1.7991 H   0  0  0  0  0  0  0  0  0  0  0  0
   -7.1689   -1.6377   -2.7630 H   0  0  0  0  0  0  0  0  0  0  0  0
   -5.7215   -0.6392   -3.0352 H   0  0  0  0  0  0  0  0  0  0  0  0
   -4.7479   -3.9525    2.4762 H   0  0  0  0  0  0  0  0  0  0  0  0
   -5.0715   -5.2391    1.2887 H   0  0  0  0  0  0  0  0  0  0  0  0
   -3.4298   -4.5663    1.4363 H   0  0  0  0  0  0  0  0  0  0  0  0
   -3.0307   -2.3411    2.1585 H   0  0  0  0  0  0  0  0  0  0  0  0
   -2.2479   -0.0482    2.0355 H   0  0  0  0  0  0  0  0  0  0  0  0
   -3.2511    2.2912   -1.8774 H   0  0  0  0  0  0  0  0  0  0  0  0
   -1.8874    3.1575   -1.1822 H   0  0  0  0  0  0  0  0  0  0  0  0
   -1.9410    0.1404   -1.6517 H   0  0  0  0  0  0  0  0  0  0  0  0
   -1.3243    1.3276   -2.8035 H   0  0  0  0  0  0  0  0  0  0  0  0
   -0.8888    1.6342    0.8092 H   0  0  0  0  0  0  0  0  0  0  0  0
    0.4099    2.0638   -1.0873 H   0  0  0  0  0  0  0  0  0  0  0  0
    2.1040   -0.4783    0.5642 H   0  0  0  0  0  0  0  0  0  0  0  0
    2.1406    1.1912   -0.0229 H   0  0  0  0  0  0  0  0  0  0  0  0
    2.7200    0.3803   -2.3053 H   0  0  0  0  0  0  0  0  0  0  0  0
    2.6928   -1.2922   -1.7216 H   0  0  0  0  0  0  0  0  0  0  0  0
    4.4044    2.0100   -0.9363 H   0  0  0  0  0  0  0  0  0  0  0  0
    5.1355    1.2928   -2.3467 H   0  0  0  0  0  0  0  0  0  0  0  0
    8.2419    2.4054    0.9364 H   0  0  0  0  0  0  0  0  0  0  0  0
    8.9907    1.7953   -0.5558 H   0  0  0  0  0  0  0  0  0  0  0  0
    9.7687    1.4779    1.0234 H   0  0  0  0  0  0  0  0  0  0  0  0
    7.1700   -3.8168    1.4923 H   0  0  0  0  0  0  0  0  0  0  0  0
    5.4944   -3.2300    1.6105 H   0  0  0  0  0  0  0  0  0  0  0  0
    6.1787   -3.6786    0.0190 H   0  0  0  0  0  0  0  0  0  0  0  0
    4.4252   -2.0549   -0.1347 H   0  0  0  0  0  0  0  0  0  0  0  0
   -0.1968   -1.6058   -1.7741 H   0  0  0  0  0  0  0  0  0  0  0  0
   -0.9831   -1.2825   -0.2152 H   0  0  0  0  0  0  0  0  0  0  0  0
    0.6445   -1.9747   -0.2613 H   0  0  0  0  0  0  0  0  0  0  0  0
   -4.9173    2.6440   -0.2534 H   0  0  0  0  0  0  0  0  0  0  0  0
   -4.1118    2.7283    2.6779 H   0  0  0  0  0  0  0  0  0  0  0  0
   -5.1111    1.4771    1.9282 H   0  0  0  0  0  0  0  0  0  0  0  0
   -5.6961    3.1378    2.0186 H   0  0  0  0  0  0  0  0  0  0  0  0
   -3.0686    4.5706    1.2085 H   0  0  0  0  0  0  0  0  0  0  0  0
   -3.4682    4.6244   -0.5172 H   0  0  0  0  0  0  0  0  0  0  0  0
   -4.7130    4.9154    0.6870 H   0  0  0  0  0  0  0  0  0  0  0  0
   -1.0081    2.9203    2.7608 H   0  0  0  0  0  0  0  0  0  0  0  0
  1  2  2  0  0  0  0
  2  3  1  0  0  0  0
  3  4  1  0  0  0  0
  4  5  4  0  0  0  0
  5  6  4  0  0  0  0
  6  7  1  0  0  0  0
  7  8  1  0  0  0  0
  6  9  4  0  0  0  0
  9 10  1  0  0  0  0
 10 11  1  0  0  0  0
  9 12  4  0  0  0  0
  4 13  4  0  0  0  0
 12 13  4  0  0  0  0
  3 14  1  0  0  0  0
 14 15  1  0  0  0  0
 15 16  1  0  0  0  0
 16 17  4  0  0  0  0
 17 18  1  0  0  0  0
 18 19  1  0  0  0  0
 19 20  1  0  0  0  0
 20 21  1  0  0  0  0
 21 22  1  0  0  0  0
 22 23  2  0  0  0  0
 23 24  1  0  0  0  0
 24 25  1  0  0  0  0
 23 26  1  0  0  0  0
 26 27  1  0  0  0  0
 27 28  1  0  0  0  0
 20 29  2  0  0  0  0
 26 29  4  0  0  0  0
 17 30  1  0  0  0  0
  3 31  1  0  0  0  0
 31 32  1  0  0  0  0
 31 33  1  0  0  0  0
  5 34  1  0  0  0  0
  8 35  1  0  0  0  0
  8 36  1  0  0  0  0
  8 37  1  0  0  0  0
 11 38  1  0  0  0  0
 11 39  1  0  0  0  0
 11 40  1  0  0  0  0
 12 41  1  0  0  0  0
 13 42  1  0  0  0  0
 14 43  1  0  0  0  0
 14 44  1  0  0  0  0
 15 45  1  0  0  0  0
 15 46  1  0  0  0  0
  2 47  1  0  0  0  0
 16 48  1  0  0  0  0
 18 49  1  0  0  0  0
 18 50  1  0  0  0  0
 19 51  1  0  0  0  0
 19 52  1  0  0  0  0
 21 53  1  0  0  0  0
 21 54  1  0  0  0  0
 25 55  1  0  0  0  0
 25 56  1  0  0  0  0
 25 57  1  0  0  0  0
 28 58  1  0  0  0  0
 28 59  1  0  0  0  0
 28 60  1  0  0  0  0
 29 61  1  0  0  0  0
 30 62  1  0  0  0  0
 30 63  1  0  0  0  0
 30 64  1  0  0  0  0
 31 65  1  0  0  0  0
 32 66  1  0  0  0  0
 32 67  1  0  0  0  0
 32 68  1  0  0  0  0
 33 69  1  0  0  0  0
 33 70  1  0  0  0  0
 33 71  1  0  0  0  0
  1 72  1  0  0  0  0
M  CHG  1   1   1
M  END
