          39
 
C             -1.43958126        1.92260571       -2.31198686
C             -0.42578152        0.91753027       -2.05969513
C             -0.34992539        0.57205913       -0.51308351
N              0.48404813       -0.52597082       -0.17755430
C              1.89791495       -0.33462695       -0.00313886
C              2.76829143       -0.51449164       -1.27008227
C              4.21706115       -0.35121145       -0.92036501
C              4.84620531        0.87993797       -1.04019570
C              6.18208890        1.03307615       -0.70572480
C              6.92057979       -0.04416780       -0.23445368
O              8.22060889       -0.01645736        0.10909977
C              8.94917128        1.18021133       -0.04121227
C              6.28118295       -1.30867266       -0.09183051
O              7.06769500       -2.29655240        0.37582017
C              6.53373602       -3.58954738        0.53353921
C              4.94433827       -1.43626741       -0.43593809
C              0.05396678       -1.82295723       -0.62286696
H             -2.47885844        1.67162861       -2.20597225
H             -1.18426606        2.95242215       -2.47086827
H             -0.68011561       -0.02322779       -2.55668649
H              0.55611246        1.25514159       -2.38679357
H             -1.36773593        0.34466765       -0.18649587
H             -0.00485844        1.46142022        0.01478395
H              2.24064408       -1.05845022        0.74458744
H              2.06121096        0.66705333        0.39902836
H              2.48445632        0.22628270       -2.01707050
H              2.59706789       -1.50935699       -1.68264889
H              4.29599450        1.73199845       -1.40922411
H              6.64442831        1.99995999       -0.81946729
H              8.55123654        1.97467128        0.59729552
H              8.95530947        1.51622411       -1.08238207
H              9.96554743        0.94395436        0.26810620
H              7.35413255       -4.20131465        0.90382345
H              5.71724172       -3.59975225        1.26249989
H              6.18016407       -3.99632343       -0.41885608
H              4.45354285       -2.39246500       -0.34296444
H              0.20304252       -1.98104882       -1.69909436
H             -1.00841609       -1.93699281       -0.40678347
H              0.61042270       -2.58942564       -0.08528158
