 xtb: 6.6.1 (8d0f1dd)
          06052420003D

 25 26  0     0  0            999 V2000
    3.0656    1.0267    0.1951 C   0  0  0  0  0  0  0  0  0  0  0  0
    2.2902    1.9343   -0.6257 N   0  0  0  0  0  0  0  0  0  0  0  0
    2.3963   -0.3059    0.1742 C   0  0  0  0  0  0  0  0  0  0  0  0
    0.7540   -2.7974   -0.2883 N   0  0  0  0  0  0  0  0  0  0  0  0
    0.2821   -1.6350   -0.1012 C   0  0  0  0  0  0  0  0  0  0  0  0
    1.0503   -0.3755   -0.0315 C   0  0  0  0  0  0  0  0  0  0  0  0
    0.3097    0.8469   -0.1102 C   0  0  0  0  0  0  0  0  0  0  0  0
    0.9262    2.0143   -0.2276 O   0  0  0  0  0  0  0  0  0  0  0  0
   -1.0128    0.8534    0.0128 N   0  0  0  0  0  0  0  0  0  0  0  0
   -1.7866    2.0809    0.0223 C   0  0  0  0  0  0  0  0  0  0  0  0
   -1.7775   -0.3453    0.1427 C   0  0  0  0  0  0  0  0  0  0  0  0
   -2.9616   -0.2678    0.3043 O   0  0  0  0  0  0  0  0  0  0  0  0
   -1.0833   -1.5197    0.0423 N   0  0  0  0  0  0  0  0  0  0  0  0
   -1.8450   -2.7573    0.0377 C   0  0  0  0  0  0  0  0  0  0  0  0
    3.1921    1.3678    1.2394 H   0  0  0  0  0  0  0  0  0  0  0  0
    4.0585    0.9675   -0.2573 H   0  0  0  0  0  0  0  0  0  0  0  0
    2.6279    2.8942   -0.6427 H   0  0  0  0  0  0  0  0  0  0  0  0
    2.9844   -1.1851    0.3768 H   0  0  0  0  0  0  0  0  0  0  0  0
   -1.1232    2.9360   -0.0555 H   0  0  0  0  0  0  0  0  0  0  0  0
   -2.4897    2.0704   -0.8111 H   0  0  0  0  0  0  0  0  0  0  0  0
   -2.3663    2.1321    0.9446 H   0  0  0  0  0  0  0  0  0  0  0  0
   -1.5470   -3.3740    0.8848 H   0  0  0  0  0  0  0  0  0  0  0  0
   -1.6275   -3.3074   -0.8775 H   0  0  0  0  0  0  0  0  0  0  0  0
   -2.9039   -2.5196    0.0990 H   0  0  0  0  0  0  0  0  0  0  0  0
    1.7476   -2.9161   -0.4164 H   0  0  0  0  0  0  0  0  0  0  0  0
  1  2  1  0  0  0  0
  1  3  1  0  0  0  0
  4  5  2  0  0  0  0
  3  6  2  0  0  0  0
  5  6  1  0  0  0  0
  6  7  1  0  0  0  0
  2  8  1  0  0  0  0
  7  8  1  0  0  0  0
  7  9  4  0  0  0  0
  9 10  1  0  0  0  0
  9 11  1  0  0  0  0
 11 12  2  0  0  0  0
  5 13  1  0  0  0  0
 11 13  1  0  0  0  0
 13 14  1  0  0  0  0
  1 15  1  0  0  0  0
  1 16  1  0  0  0  0
  2 17  1  0  0  0  0
  3 18  1  0  0  0  0
 10 19  1  0  0  0  0
 10 20  1  0  0  0  0
 10 21  1  0  0  0  0
 14 22  1  0  0  0  0
 14 23  1  0  0  0  0
 14 24  1  0  0  0  0
  4 25  1  0  0  0  0
M  CHG  1   1   1
M  END
