          21
 
C              3.10307500        1.18873976        0.01117852
N              2.25300551        0.03173479       -0.00280008
C              2.62088789       -1.23780551       -0.02056760
N              1.52900355       -2.03359917       -0.01930554
C              0.41936333       -1.23061717        0.00065769
C              0.88429720        0.07901464        0.01195942
C             -0.06742157        1.20415460        0.01907495
O              0.29032749        2.36918212        0.01433875
N             -1.33970740        0.78909627        0.02098814
C             -1.83686765       -0.44011547        0.01961067
O             -3.00221150       -0.72897086        0.02358760
N             -0.87126131       -1.55466824        0.00661722
C             -1.35579431       -2.91334063       -0.00480777
H              2.96487962        1.73673649        0.94474224
H              4.14364044        0.89063907       -0.09129689
H              2.82243260        1.85882194       -0.80237554
H              3.63239625       -1.59458219       -0.03552777
H             -1.04297470       -3.44382240        0.89625267
H             -1.00441409       -3.44323463       -0.89174439
H             -2.44512068       -2.86266794       -0.02657616
H              1.54215208       -3.04367267       -0.03212688
