          42
 
N             -1.67152324        2.30821907        1.97301253
C             -1.88546418        2.41944760        0.74348245
C             -3.25029002        2.18852762        0.12255127
C             -3.63816326        0.71868514        0.15867984
C             -4.77093932        0.30742134       -0.54625396
C             -5.19870340       -1.01133915       -0.53148265
O             -6.27225822       -1.49129818       -1.18361934
C             -7.04866195       -0.62882621       -1.98260327
C             -4.47698917       -1.97233106        0.23450181
O             -4.97291474       -3.22086426        0.21288263
C             -4.37628978       -4.21472772        1.01462968
C             -3.34879658       -1.55526715        0.92745179
C             -2.93328530       -0.23333626        0.88523099
C             -3.05085951        2.64019318       -1.34335915
C             -1.57449847        2.38667766       -1.62724273
C             -0.89266464        2.79166142       -0.32655652
C             -4.34565556        3.01642071        0.85959763
C             -4.70161410        2.38951079        2.20433608
C             -3.93164256        4.47016018        1.08031598
H             -5.34303852        1.03477040       -1.09937899
H             -7.50291118        0.16936465       -1.38799120
H             -7.83331344       -1.25245112       -2.40652757
H             -6.45612986       -0.19191646       -2.79252962
H             -4.39664951       -3.93798362        2.07296653
H             -4.97499646       -5.11071418        0.86252828
H             -3.34400753       -4.41133008        0.70857477
H             -2.78002173       -2.25826530        1.51421168
H             -2.05546605        0.04565617        1.44334896
H             -3.69326261        2.10274016       -2.03725958
H             -3.26790131        3.70356164       -1.44102537
H             -1.40933842        1.32422182       -1.81226355
H             -1.21358161        2.95025424       -2.48602672
H             -0.73395426        3.87288459       -0.28473442
H              0.06557814        2.29731659       -0.16217558
H             -5.23279715        3.00633128        0.21589625
H             -3.79794954        2.26664688        2.79681560
H             -5.16968099        1.41672353        2.07896332
H             -5.38822630        3.03647379        2.74371351
H             -3.11117542        4.52806898        1.79117709
H             -3.62974903        4.96002325        0.15801976
H             -4.77180028        5.02601787        1.48942563
H             -0.73017253        2.48352057        2.30763562
