          70
 
N             -1.96440151        2.70814245        2.46895565
C             -1.74174473        2.02096145        1.44351537
C             -2.87102152        1.90372453        0.44097371
C             -3.43623417        0.49778197        0.38699341
C             -4.49325313        0.22426868       -0.48341595
C             -5.06199063       -1.03564885       -0.55538743
O             -6.08112530       -1.38606324       -1.36536837
C             -6.66712258       -0.41319737       -2.19766528
C             -4.56218137       -2.07520766        0.27650660
O             -5.17051847       -3.27005870        0.13824671
C             -4.77613211       -4.33946569        0.96548497
C             -3.52149142       -1.79140837        1.14582867
C             -2.96479244       -0.51858631        1.20109654
C             -2.37594446        2.33848249       -0.95236782
C             -1.47259342        1.29454671       -1.63785199
C             -0.12297538        1.20947265       -1.04495648
N              0.49156813        0.10080850       -0.66489394
C              1.87427580        0.13775116       -0.24795647
C              2.82084044       -0.27869162       -1.39058073
C              4.25212170       -0.18190641       -0.94195131
C              4.93133784        1.02399284       -1.01094338
C              6.24859216        1.12184316       -0.59159124
C              6.91473422        0.01235601       -0.09043503
O              8.19259012       -0.01212598        0.32980873
C              8.97350376        1.15631837        0.22593514
C              6.22188610       -1.22704984       -0.00327368
O              6.94087453       -2.25136725        0.49620080
C              6.35122540       -3.52580649        0.59329627
C              4.90393589       -1.29955454       -0.42685741
C             -0.12298875       -1.19966615       -0.78288198
C             -3.93256122        2.85789377        1.08869680
C             -3.29897833        3.22961791        2.45764393
C             -4.28587099        4.11238255        0.29839085
H             -4.88503898        1.01853782       -1.09762007
H             -7.10194276        0.40527250       -1.61545612
H             -7.45849401       -0.92961491       -2.73740313
H             -5.94518613       -0.00963309       -2.91520810
H             -4.90701535       -4.09782624        2.02420659
H             -5.42923780       -5.16890440        0.70174987
H             -3.73569481       -4.62554353        0.78157682
H             -3.13572809       -2.55537891        1.80130723
H             -2.17573241       -0.32641522        1.91180844
H             -3.23258687        2.50679979       -1.60296015
H             -1.83314291        3.28045458       -0.86453137
H             -1.97474259        0.32873658       -1.65009512
H             -1.35241567        1.62305849       -2.67803790
H             -0.77711046        1.56466950        1.28594959
H              0.43110617        2.12969314       -0.93683710
H              2.01009621       -0.53645215        0.60149872
H              2.12940097        1.14885966        0.07461849
H              2.65370687        0.38448368       -2.24129674
H              2.59450777       -1.29996967       -1.69912017
H              4.43990753        1.89902633       -1.40832222
H              6.75254180        2.07144914       -0.66438659
H              8.58128298        1.95814177        0.85879079
H              9.03643182        1.50461127       -0.80920817
H              9.96584254        0.87586890        0.57341329
H              7.12349714       -4.17473241        1.00157371
H              5.49056863       -3.51943167        1.26975799
H              6.04456071       -3.90177634       -0.38769278
H              4.37340278       -2.23745375       -0.37517038
H             -0.24686118       -1.48640917       -1.82936222
H             -1.10287417       -1.20352404       -0.29978148
H              0.50590688       -1.93839107       -0.29278271
H             -4.85304735        2.29331618        1.25534481
H             -3.84357369        2.79179204        3.29873131
H             -3.25303612        4.30971526        2.62095937
H             -3.41000029        4.72364142        0.10510529
H             -4.76050853        3.87100762       -0.64946359
H             -4.99070360        4.70535007        0.87682598
