 xtb: 6.6.1 (8d0f1dd)
          06052420003D

 25 26  0     0  0            999 V2000
    3.3998    0.8781    0.3058 C   0  0  0  0  0  0  0  0  0  0  0  0
    2.3882   -0.1249    0.1217 N   0  0  0  0  0  0  0  0  0  0  0  0
    2.5742   -1.4352    0.0011 C   0  0  0  0  0  0  0  0  0  0  0  0
    1.3774   -2.0631   -0.1253 N   0  0  0  0  0  0  0  0  0  0  0  0
    0.4043   -1.1164   -0.0776 C   0  0  0  0  0  0  0  0  0  0  0  0
    1.0335    0.1244    0.0780 C   0  0  0  0  0  0  0  0  0  0  0  0
    0.3096    1.3212    0.1891 C   0  0  0  0  0  0  0  0  0  0  0  0
   -2.7706    2.5207   -0.6654 O   0  0  0  0  0  0  0  0  0  0  0  0
   -1.0123    1.1361    0.1479 N   0  0  0  0  0  0  0  0  0  0  0  0
   -1.8613    2.3392    0.3458 C   0  0  0  0  0  0  0  0  0  0  0  0
   -1.7223   -0.0667    0.0101 C   0  0  0  0  0  0  0  0  0  0  0  0
   -2.9139   -0.1384    0.0228 O   0  0  0  0  0  0  0  0  0  0  0  0
   -0.9286   -1.2317   -0.1429 N   0  0  0  0  0  0  0  0  0  0  0  0
   -1.5901   -2.5123   -0.2961 C   0  0  0  0  0  0  0  0  0  0  0  0
    3.8375    0.7992    1.3021 H   0  0  0  0  0  0  0  0  0  0  0  0
    4.1903    0.7632   -0.4349 H   0  0  0  0  0  0  0  0  0  0  0  0
    2.9329    1.8552    0.2001 H   0  0  0  0  0  0  0  0  0  0  0  0
    3.5231   -1.9330    0.0065 H   0  0  0  0  0  0  0  0  0  0  0  0
   -2.3633    2.8809   -1.4665 H   0  0  0  0  0  0  0  0  0  0  0  0
   -2.4374    2.1899    1.2699 H   0  0  0  0  0  0  0  0  0  0  0  0
   -1.1551    3.1694    0.4701 H   0  0  0  0  0  0  0  0  0  0  0  0
   -1.3761   -3.1575    0.5568 H   0  0  0  0  0  0  0  0  0  0  0  0
   -1.2723   -2.9944   -1.2209 H   0  0  0  0  0  0  0  0  0  0  0  0
   -2.6624   -2.3248   -0.3397 H   0  0  0  0  0  0  0  0  0  0  0  0
    1.2556   -3.0609   -0.2275 H   0  0  0  0  0  0  0  0  0  0  0  0
  1  2  1  0  0  0  0
  2  3  4  0  0  0  0
  3  4  4  0  0  0  0
  4  5  4  0  0  0  0
  2  6  1  0  0  0  0
  5  6  4  0  0  0  0
  6  7  4  0  0  0  0
  7  9  4  0  0  0  0
  8 10  1  0  0  0  0
  9 10  1  0  0  0  0
  9 11  1  0  0  0  0
 11 12  2  0  0  0  0
  5 13  4  0  0  0  0
 11 13  1  0  0  0  0
 13 14  1  0  0  0  0
  1 15  1  0  0  0  0
  1 16  1  0  0  0  0
  1 17  1  0  0  0  0
  3 18  1  0  0  0  0
  8 19  1  0  0  0  0
 10 20  1  0  0  0  0
 10 21  1  0  0  0  0
 14 22  1  0  0  0  0
 14 23  1  0  0  0  0
 14 24  1  0  0  0  0
  4 25  1  0  0  0  0
M  CHG  1   1   1
M  END
