 xtb: 6.6.1 (8d0f1dd)
          06052419583D

 25 25  0     0  0            999 V2000
    3.6773    0.8006    0.5767 C   0  0  0  0  0  0  0  0  0  0  0  0
    2.4657    0.2058    0.0649 N   0  0  0  0  0  0  0  0  0  0  0  0
    2.4346   -0.8947   -0.6997 C   0  0  0  0  0  0  0  0  0  0  0  0
    1.3493   -1.6398   -0.8930 N   0  0  0  0  0  0  0  0  0  0  0  0
    0.2785   -1.9855   -0.0749 C   0  0  0  0  0  0  0  0  0  0  0  0
    1.2510    0.7146    0.3103 C   0  0  0  0  0  0  0  0  0  0  0  0
    0.1138    0.9470   -0.0379 C   0  0  0  0  0  0  0  0  0  0  0  0
   -1.9739    2.9687    0.3456 O   0  0  0  0  0  0  0  0  0  0  0  0
   -1.1909    0.8437   -0.2705 N   0  0  0  0  0  0  0  0  0  0  0  0
   -1.9771    2.0383   -0.6657 C   0  0  0  0  0  0  0  0  0  0  0  0
   -1.7038   -0.4062   -0.4526 C   0  0  0  0  0  0  0  0  0  0  0  0
   -2.7507   -0.6519   -0.9752 O   0  0  0  0  0  0  0  0  0  0  0  0
   -0.8974   -1.5057    0.1168 N   0  0  0  0  0  0  0  0  0  0  0  0
   -1.7556   -2.2970    1.0030 C   0  0  0  0  0  0  0  0  0  0  0  0
    3.8098    0.5476    1.6309 H   0  0  0  0  0  0  0  0  0  0  0  0
    4.5326    0.4322    0.0141 H   0  0  0  0  0  0  0  0  0  0  0  0
    3.6220    1.8843    0.4821 H   0  0  0  0  0  0  0  0  0  0  0  0
    3.3650   -1.2243   -1.1394 H   0  0  0  0  0  0  0  0  0  0  0  0
   -2.6581    2.7908    1.0032 H   0  0  0  0  0  0  0  0  0  0  0  0
   -1.4875    2.4967   -1.5333 H   0  0  0  0  0  0  0  0  0  0  0  0
   -2.9698    1.6701   -0.9498 H   0  0  0  0  0  0  0  0  0  0  0  0
   -1.2031   -3.1638    1.3554 H   0  0  0  0  0  0  0  0  0  0  0  0
   -2.6407   -2.6162    0.4529 H   0  0  0  0  0  0  0  0  0  0  0  0
   -2.0657   -1.6841    1.8487 H   0  0  0  0  0  0  0  0  0  0  0  0
    1.5354   -2.4531   -1.4816 H   0  0  0  0  0  0  0  0  0  0  0  0
  1  2  1  0  0  0  0
  2  3  4  0  0  0  0
  3  4  4  0  0  0  0
  4  5  1  0  0  0  0
  2  6  1  0  0  0  0
  6  7  3  0  0  0  0
  7  9  1  0  0  0  0
  8 10  1  0  0  0  0
  9 10  1  0  0  0  0
  9 11  1  0  0  0  0
 11 12  2  0  0  0  0
  5 13  2  0  0  0  0
 11 13  1  0  0  0  0
 13 14  1  0  0  0  0
  1 15  1  0  0  0  0
  1 16  1  0  0  0  0
  1 17  1  0  0  0  0
  3 18  1  0  0  0  0
  8 19  1  0  0  0  0
 10 20  1  0  0  0  0
 10 21  1  0  0  0  0
 14 22  1  0  0  0  0
 14 23  1  0  0  0  0
 14 24  1  0  0  0  0
  4 25  1  0  0  0  0
M  CHG  1   1   1
M  END
