 xtb: 6.6.1 (8d0f1dd)
          04062411163D

 72 73  0     0  0            999 V2000
   -1.8653    2.9253    2.3489 N   0  0  0  0  0  0  0  0  0  0  0  0
   -1.8218    2.1532    1.3644 C   0  0  0  0  0  0  0  0  0  0  0  0
   -2.9049    2.0328    0.3328 C   0  0  0  0  0  0  0  0  0  0  0  0
   -3.4005    0.5988    0.2584 C   0  0  0  0  0  0  0  0  0  0  0  0
   -4.0751    0.1647   -0.8922 C   0  0  0  0  0  0  0  0  0  0  0  0
   -4.5454   -1.1143   -0.8601 C   0  0  0  0  0  0  0  0  0  0  0  0
   -5.2246   -1.5618   -2.1191 O   0  0  0  0  0  0  0  0  0  0  0  0
   -6.6411   -1.8210   -1.9872 C   0  0  0  0  0  0  0  0  0  0  0  0
   -4.4372   -2.0327    0.1894 C   0  0  0  0  0  0  0  0  0  0  0  0
   -4.9937   -3.2656    0.0244 O   0  0  0  0  0  0  0  0  0  0  0  0
   -4.9049   -4.1877    1.0893 C   0  0  0  0  0  0  0  0  0  0  0  0
   -3.7600   -1.5663    1.3083 C   0  0  0  0  0  0  0  0  0  0  0  0
   -3.2571   -0.2694    1.3325 C   0  0  0  0  0  0  0  0  0  0  0  0
   -2.2725    2.4371   -1.0221 C   0  0  0  0  0  0  0  0  0  0  0  0
   -1.3027    1.4047   -1.6228 C   0  0  0  0  0  0  0  0  0  0  0  0
   -0.0173    1.2903   -0.9024 C   0  0  0  0  0  0  0  0  0  0  0  0
    0.5733    0.1474   -0.5477 N   0  0  0  0  0  0  0  0  0  0  0  0
    1.9584    0.1384   -0.1434 C   0  0  0  0  0  0  0  0  0  0  0  0
    2.8853   -0.2787   -1.3025 C   0  0  0  0  0  0  0  0  0  0  0  0
    4.3231   -0.1133   -0.8989 C   0  0  0  0  0  0  0  0  0  0  0  0
    4.9803    1.0854   -1.1130 C   0  0  0  0  0  0  0  0  0  0  0  0
    6.3001    1.2512   -0.7203 C   0  0  0  0  0  0  0  0  0  0  0  0
    6.9861    0.2192   -0.0991 C   0  0  0  0  0  0  0  0  0  0  0  0
    8.2686    0.2678    0.3191 O   0  0  0  0  0  0  0  0  0  0  0  0
    9.0126    1.4430    0.0989 C   0  0  0  0  0  0  0  0  0  0  0  0
    6.3177   -1.0121    0.1318 C   0  0  0  0  0  0  0  0  0  0  0  0
    7.0596   -1.9636    0.7417 O   0  0  0  0  0  0  0  0  0  0  0  0
    6.4868   -3.2244    0.9873 C   0  0  0  0  0  0  0  0  0  0  0  0
    4.9998   -1.1555   -0.2684 C   0  0  0  0  0  0  0  0  0  0  0  0
   -0.0800   -1.1288   -0.7021 C   0  0  0  0  0  0  0  0  0  0  0  0
   -4.1451    2.9344    0.6068 C   0  0  0  0  0  0  0  0  0  0  0  0
   -4.8199    2.5854    1.9315 C   0  0  0  0  0  0  0  0  0  0  0  0
   -3.8229    4.4264    0.5823 C   0  0  0  0  0  0  0  0  0  0  0  0
   -5.0982   -0.7929   -2.7113 H   0  0  0  0  0  0  0  0  0  0  0  0
   -7.1617   -0.9637   -1.5590 H   0  0  0  0  0  0  0  0  0  0  0  0
   -6.7529   -2.6869   -1.3354 H   0  0  0  0  0  0  0  0  0  0  0  0
   -7.0334   -2.0527   -2.9756 H   0  0  0  0  0  0  0  0  0  0  0  0
   -5.4104   -3.8106    1.9825 H   0  0  0  0  0  0  0  0  0  0  0  0
   -5.4072   -5.0876    0.7396 H   0  0  0  0  0  0  0  0  0  0  0  0
   -3.8640   -4.4219    1.3265 H   0  0  0  0  0  0  0  0  0  0  0  0
   -3.6303   -2.1973    2.1723 H   0  0  0  0  0  0  0  0  0  0  0  0
   -2.7571    0.0665    2.2302 H   0  0  0  0  0  0  0  0  0  0  0  0
   -3.0857    2.5759   -1.7340 H   0  0  0  0  0  0  0  0  0  0  0  0
   -1.7517    3.3867   -0.9006 H   0  0  0  0  0  0  0  0  0  0  0  0
   -1.8096    0.4450   -1.7032 H   0  0  0  0  0  0  0  0  0  0  0  0
   -1.0776    1.7504   -2.6406 H   0  0  0  0  0  0  0  0  0  0  0  0
   -0.9544    1.5111    1.1296 H   0  0  0  0  0  0  0  0  0  0  0  0
    0.5551    2.1924   -0.7505 H   0  0  0  0  0  0  0  0  0  0  0  0
    2.0874   -0.5518    0.6947 H   0  0  0  0  0  0  0  0  0  0  0  0
    2.2410    1.1386    0.1909 H   0  0  0  0  0  0  0  0  0  0  0  0
    2.6676    0.3544   -2.1647 H   0  0  0  0  0  0  0  0  0  0  0  0
    2.6857   -1.3158   -1.5752 H   0  0  0  0  0  0  0  0  0  0  0  0
    4.4705    1.9018   -1.6021 H   0  0  0  0  0  0  0  0  0  0  0  0
    6.7874    2.1936   -0.9089 H   0  0  0  0  0  0  0  0  0  0  0  0
    8.5787    2.2980    0.6268 H   0  0  0  0  0  0  0  0  0  0  0  0
    9.0910    1.6739   -0.9679 H   0  0  0  0  0  0  0  0  0  0  0  0
   10.0046    1.2396    0.4975 H   0  0  0  0  0  0  0  0  0  0  0  0
    7.2693   -3.8135    1.4617 H   0  0  0  0  0  0  0  0  0  0  0  0
    5.6294   -3.1518    1.6647 H   0  0  0  0  0  0  0  0  0  0  0  0
    6.1788   -3.7144    0.0581 H   0  0  0  0  0  0  0  0  0  0  0  0
    4.4849   -2.0895   -0.1059 H   0  0  0  0  0  0  0  0  0  0  0  0
   -0.1429   -1.4225   -1.7533 H   0  0  0  0  0  0  0  0  0  0  0  0
   -1.0891   -1.0897   -0.2870 H   0  0  0  0  0  0  0  0  0  0  0  0
    0.4861   -1.8860   -0.1645 H   0  0  0  0  0  0  0  0  0  0  0  0
   -4.8526    2.7165   -0.2031 H   0  0  0  0  0  0  0  0  0  0  0  0
   -4.1543    2.8138    2.7577 H   0  0  0  0  0  0  0  0  0  0  0  0
   -5.0890    1.5326    1.9731 H   0  0  0  0  0  0  0  0  0  0  0  0
   -5.7268    3.1737    2.0447 H   0  0  0  0  0  0  0  0  0  0  0  0
   -3.0627    4.6552    1.3224 H   0  0  0  0  0  0  0  0  0  0  0  0
   -3.4837    4.7534   -0.3966 H   0  0  0  0  0  0  0  0  0  0  0  0
   -4.7197    4.9891    0.8286 H   0  0  0  0  0  0  0  0  0  0  0  0
   -1.0558    2.9405    2.9627 H   0  0  0  0  0  0  0  0  0  0  0  0
  1  2  2  0  0  0  0
  2  3  1  0  0  0  0
  3  4  1  0  0  0  0
  4  5  4  0  0  0  0
  5  6  4  0  0  0  0
  6  7  1  0  0  0  0
  7  8  1  0  0  0  0
  6  9  4  0  0  0  0
  9 10  1  0  0  0  0
 10 11  1  0  0  0  0
  9 12  4  0  0  0  0
  4 13  4  0  0  0  0
 12 13  4  0  0  0  0
  3 14  1  0  0  0  0
 14 15  1  0  0  0  0
 15 16  1  0  0  0  0
 16 17  4  0  0  0  0
 17 18  1  0  0  0  0
 18 19  1  0  0  0  0
 19 20  1  0  0  0  0
 20 21  4  0  0  0  0
 21 22  4  0  0  0  0
 22 23  4  0  0  0  0
 23 24  1  0  0  0  0
 24 25  1  0  0  0  0
 23 26  4  0  0  0  0
 26 27  1  0  0  0  0
 27 28  1  0  0  0  0
 20 29  4  0  0  0  0
 26 29  4  0  0  0  0
 17 30  1  0  0  0  0
  3 31  1  0  0  0  0
 31 32  1  0  0  0  0
 31 33  1  0  0  0  0
  7 34  1  0  0  0  0
  8 35  1  0  0  0  0
  8 36  1  0  0  0  0
  8 37  1  0  0  0  0
 11 38  1  0  0  0  0
 11 39  1  0  0  0  0
 11 40  1  0  0  0  0
 12 41  1  0  0  0  0
 13 42  1  0  0  0  0
 14 43  1  0  0  0  0
 14 44  1  0  0  0  0
 15 45  1  0  0  0  0
 15 46  1  0  0  0  0
  2 47  1  0  0  0  0
 16 48  1  0  0  0  0
 18 49  1  0  0  0  0
 18 50  1  0  0  0  0
 19 51  1  0  0  0  0
 19 52  1  0  0  0  0
 21 53  1  0  0  0  0
 22 54  1  0  0  0  0
 25 55  1  0  0  0  0
 25 56  1  0  0  0  0
 25 57  1  0  0  0  0
 28 58  1  0  0  0  0
 28 59  1  0  0  0  0
 28 60  1  0  0  0  0
 29 61  1  0  0  0  0
 30 62  1  0  0  0  0
 30 63  1  0  0  0  0
 30 64  1  0  0  0  0
 31 65  1  0  0  0  0
 32 66  1  0  0  0  0
 32 67  1  0  0  0  0
 32 68  1  0  0  0  0
 33 69  1  0  0  0  0
 33 70  1  0  0  0  0
 33 71  1  0  0  0  0
  1 72  1  0  0  0  0
M  CHG  1   1   1
M  END
