           9
 
C              5.13056411       -0.96512079        0.07497617
N              3.74982201       -1.08570584        0.00966626
C              3.01216225       -2.11737527       -0.28565143
N              1.73600333       -2.17692660       -0.32318688
H              5.40597467       -0.58146642        1.06538674
H              5.67091935       -1.90317445       -0.10931451
H              5.45821017       -0.21268886       -0.65512637
H              3.51230459       -3.06871722       -0.54054726
H              1.15181380       -1.33948562       -0.09418600
