 xtb: 6.6.1 (8d0f1dd)
          06052420003D

 25 25  0     0  0            999 V2000
    5.6169    1.0903    0.0982 C   0  0  0  0  0  0  0  0  0  0  0  0
    1.9092    0.2658   -0.0291 N   0  0  0  0  0  0  0  0  0  0  0  0
    2.2799   -1.0081   -0.0251 C   0  0  0  0  0  0  0  0  0  0  0  0
    1.1777   -1.7894   -0.0181 N   0  0  0  0  0  0  0  0  0  0  0  0
    0.0771   -0.9778   -0.0149 C   0  0  0  0  0  0  0  0  0  0  0  0
    0.5398    0.3274   -0.0222 C   0  0  0  0  0  0  0  0  0  0  0  0
   -0.3693    1.4647   -0.0234 C   0  0  0  0  0  0  0  0  0  0  0  0
   -0.0309    2.6215   -0.0233 O   0  0  0  0  0  0  0  0  0  0  0  0
   -1.6958    1.0416   -0.0217 N   0  0  0  0  0  0  0  0  0  0  0  0
   -2.7251    2.0750   -0.0265 C   0  0  0  0  0  0  0  0  0  0  0  0
   -2.1808   -0.2531   -0.0127 C   0  0  0  0  0  0  0  0  0  0  0  0
   -3.3517   -0.5045   -0.0089 O   0  0  0  0  0  0  0  0  0  0  0  0
   -1.2246   -1.2998   -0.0082 N   0  0  0  0  0  0  0  0  0  0  0  0
   -1.6915   -2.6725    0.0068 C   0  0  0  0  0  0  0  0  0  0  0  0
    6.0266    1.3503    1.0627 H   0  0  0  0  0  0  0  0  0  0  0  0
    6.2246    1.2314   -0.7855 H   0  0  0  0  0  0  0  0  0  0  0  0
    2.5255    1.0708   -0.0204 H   0  0  0  0  0  0  0  0  0  0  0  0
    3.2902   -1.3666   -0.0299 H   0  0  0  0  0  0  0  0  0  0  0  0
   -2.2303    3.0429   -0.0366 H   0  0  0  0  0  0  0  0  0  0  0  0
   -3.3557    1.9621   -0.9075 H   0  0  0  0  0  0  0  0  0  0  0  0
   -3.3498    1.9779    0.8605 H   0  0  0  0  0  0  0  0  0  0  0  0
   -1.3436   -3.1860    0.9033 H   0  0  0  0  0  0  0  0  0  0  0  0
   -1.3572   -3.2016   -0.8858 H   0  0  0  0  0  0  0  0  0  0  0  0
   -2.7807   -2.6439    0.0146 H   0  0  0  0  0  0  0  0  0  0  0  0
    1.1799   -2.8001   -0.0152 H   0  0  0  0  0  0  0  0  0  0  0  0
  2  3  4  0  0  0  0
  3  4  4  0  0  0  0
  4  5  1  0  0  0  0
  2  6  1  0  0  0  0
  5  6  4  0  0  0  0
  6  7  1  0  0  0  0
  7  8  2  0  0  0  0
  7  9  1  0  0  0  0
  9 10  1  0  0  0  0
  9 11  1  0  0  0  0
 11 12  2  0  0  0  0
  5 13  4  0  0  0  0
 11 13  1  0  0  0  0
 13 14  1  0  0  0  0
  1 15  1  0  0  0  0
  1 16  1  0  0  0  0
  2 17  1  0  0  0  0
  3 18  1  0  0  0  0
 10 19  1  0  0  0  0
 10 20  1  0  0  0  0
 10 21  1  0  0  0  0
 14 22  1  0  0  0  0
 14 23  1  0  0  0  0
 14 24  1  0  0  0  0
  4 25  1  0  0  0  0
M  CHG  1   1   1
M  END
