 xtb: 6.6.1 (8d0f1dd)
          04062411123D

 72 72  0     0  0            999 V2000
   -2.5383    2.7516    2.5082 N   0  0  0  0  0  0  0  0  0  0  0  0
   -2.5779    1.9697    1.5841 C   0  0  0  0  0  0  0  0  0  0  0  0
   -2.8542    1.3092    0.4799 C   0  0  0  0  0  0  0  0  0  0  0  0
   -3.5449    0.0265    0.5128 C   0  0  0  0  0  0  0  0  0  0  0  0
   -4.1295   -0.5121   -0.6404 C   0  0  0  0  0  0  0  0  0  0  0  0
   -4.7421   -1.7514   -0.6195 C   0  0  0  0  0  0  0  0  0  0  0  0
   -5.3270   -2.3488   -1.6811 O   0  0  0  0  0  0  0  0  0  0  0  0
   -5.3547   -1.6787   -2.9188 C   0  0  0  0  0  0  0  0  0  0  0  0
   -4.7849   -2.4982    0.5903 C   0  0  0  0  0  0  0  0  0  0  0  0
   -5.3818   -3.7021    0.5043 O   0  0  0  0  0  0  0  0  0  0  0  0
   -5.4686   -4.5109    1.6548 C   0  0  0  0  0  0  0  0  0  0  0  0
   -4.2279   -1.9460    1.7372 C   0  0  0  0  0  0  0  0  0  0  0  0
   -3.6200   -0.7047    1.6997 C   0  0  0  0  0  0  0  0  0  0  0  0
   -2.3116    1.8723   -0.8181 C   0  0  0  0  0  0  0  0  0  0  0  0
   -1.3057    0.9174   -1.4669 C   0  0  0  0  0  0  0  0  0  0  0  0
   -0.0766    0.7136   -0.5783 C   0  0  0  0  0  0  0  0  0  0  0  0
    0.8755   -0.2035   -1.1655 N   0  0  0  0  0  0  0  0  0  0  0  0
    2.2358   -0.0805   -0.6845 C   0  0  0  0  0  0  0  0  0  0  0  0
    3.2534   -0.3795   -1.8017 C   0  0  0  0  0  0  0  0  0  0  0  0
    4.6484   -0.1587   -1.2971 C   0  0  0  0  0  0  0  0  0  0  0  0
    5.3130    1.0366   -1.5256 C   0  0  0  0  0  0  0  0  0  0  0  0
    6.5872    1.2510   -1.0230 C   0  0  0  0  0  0  0  0  0  0  0  0
    7.2234    0.2731   -0.2714 C   0  0  0  0  0  0  0  0  0  0  0  0
    8.4537    0.3694    0.2687 O   0  0  0  0  0  0  0  0  0  0  0  0
    9.2053    1.5430    0.0624 C   0  0  0  0  0  0  0  0  0  0  0  0
    6.5495   -0.9562   -0.0277 C   0  0  0  0  0  0  0  0  0  0  0  0
    7.2378   -1.8493    0.7119 O   0  0  0  0  0  0  0  0  0  0  0  0
    6.6593   -3.1013    0.9926 C   0  0  0  0  0  0  0  0  0  0  0  0
    5.2781   -1.1478   -0.5448 C   0  0  0  0  0  0  0  0  0  0  0  0
    0.4041   -1.5682   -1.2333 C   0  0  0  0  0  0  0  0  0  0  0  0
   -5.6558    4.9503    1.3155 C   0  0  0  0  0  0  0  0  0  0  0  0
   -5.9475    3.8137    2.1941 C   0  0  0  0  0  0  0  0  0  0  0  0
   -4.3089    5.4988    1.1409 C   0  0  0  0  0  0  0  0  0  0  0  0
   -4.1223    0.0592   -1.5533 H   0  0  0  0  0  0  0  0  0  0  0  0
   -5.9021   -0.7329   -2.8521 H   0  0  0  0  0  0  0  0  0  0  0  0
   -5.8761   -2.3473   -3.6011 H   0  0  0  0  0  0  0  0  0  0  0  0
   -4.3448   -1.4915   -3.2992 H   0  0  0  0  0  0  0  0  0  0  0  0
   -6.0620   -4.0306    2.4389 H   0  0  0  0  0  0  0  0  0  0  0  0
   -5.9671   -5.4231    1.3333 H   0  0  0  0  0  0  0  0  0  0  0  0
   -4.4772   -4.7587    2.0467 H   0  0  0  0  0  0  0  0  0  0  0  0
   -4.2594   -2.4854    2.6701 H   0  0  0  0  0  0  0  0  0  0  0  0
   -3.1838   -0.3019    2.6018 H   0  0  0  0  0  0  0  0  0  0  0  0
   -3.1393    2.0565   -1.5059 H   0  0  0  0  0  0  0  0  0  0  0  0
   -1.8312    2.8315   -0.6171 H   0  0  0  0  0  0  0  0  0  0  0  0
   -1.7894   -0.0426   -1.6422 H   0  0  0  0  0  0  0  0  0  0  0  0
   -0.9863    1.3234   -2.4280 H   0  0  0  0  0  0  0  0  0  0  0  0
   -0.4095    0.3574    0.4150 H   0  0  0  0  0  0  0  0  0  0  0  0
    0.4183    1.6800   -0.4417 H   0  0  0  0  0  0  0  0  0  0  0  0
    2.4238   -0.7526    0.1683 H   0  0  0  0  0  0  0  0  0  0  0  0
    2.4009    0.9444   -0.3429 H   0  0  0  0  0  0  0  0  0  0  0  0
    3.0435    0.2804   -2.6447 H   0  0  0  0  0  0  0  0  0  0  0  0
    3.1401   -1.4112   -2.1393 H   0  0  0  0  0  0  0  0  0  0  0  0
    4.8395    1.8112   -2.1091 H   0  0  0  0  0  0  0  0  0  0  0  0
    7.0801    2.1883   -1.2240 H   0  0  0  0  0  0  0  0  0  0  0  0
    8.7102    2.4166    0.4969 H   0  0  0  0  0  0  0  0  0  0  0  0
    9.3900    1.7187   -1.0015 H   0  0  0  0  0  0  0  0  0  0  0  0
   10.1530    1.3751    0.5706 H   0  0  0  0  0  0  0  0  0  0  0  0
    7.3895   -3.6304    1.6018 H   0  0  0  0  0  0  0  0  0  0  0  0
    5.7265   -2.9960    1.5558 H   0  0  0  0  0  0  0  0  0  0  0  0
    6.4712   -3.6701    0.0767 H   0  0  0  0  0  0  0  0  0  0  0  0
    4.7616   -2.0795   -0.3748 H   0  0  0  0  0  0  0  0  0  0  0  0
   -0.4061   -1.6454   -1.9555 H   0  0  0  0  0  0  0  0  0  0  0  0
    0.0378   -1.9252   -0.2574 H   0  0  0  0  0  0  0  0  0  0  0  0
    1.2093   -2.2198   -1.5631 H   0  0  0  0  0  0  0  0  0  0  0  0
   -6.4795    5.4311    0.8117 H   0  0  0  0  0  0  0  0  0  0  0  0
   -5.0459    3.4227    2.6570 H   0  0  0  0  0  0  0  0  0  0  0  0
   -6.4403    3.0125    1.6368 H   0  0  0  0  0  0  0  0  0  0  0  0
   -6.6586    4.1063    2.9721 H   0  0  0  0  0  0  0  0  0  0  0  0
   -3.5488    4.7815    1.4446 H   0  0  0  0  0  0  0  0  0  0  0  0
   -4.1410    5.8191    0.1120 H   0  0  0  0  0  0  0  0  0  0  0  0
   -4.1870    6.3964    1.7597 H   0  0  0  0  0  0  0  0  0  0  0  0
   -1.7976    2.7979    3.1943 H   0  0  0  0  0  0  0  0  0  0  0  0
  1  2  2  0  0  0  0
  2  3  2  0  0  0  0
  3  4  1  0  0  0  0
  4  5  4  0  0  0  0
  5  6  4  0  0  0  0
  6  7  1  0  0  0  0
  7  8  1  0  0  0  0
  6  9  4  0  0  0  0
  9 10  1  0  0  0  0
 10 11  1  0  0  0  0
  9 12  4  0  0  0  0
  4 13  4  0  0  0  0
 12 13  4  0  0  0  0
  3 14  1  0  0  0  0
 14 15  1  0  0  0  0
 15 16  1  0  0  0  0
 16 17  1  0  0  0  0
 17 18  1  0  0  0  0
 18 19  1  0  0  0  0
 19 20  1  0  0  0  0
 20 21  4  0  0  0  0
 21 22  4  0  0  0  0
 22 23  4  0  0  0  0
 23 24  1  0  0  0  0
 24 25  1  0  0  0  0
 23 26  4  0  0  0  0
 26 27  1  0  0  0  0
 27 28  1  0  0  0  0
 20 29  4  0  0  0  0
 26 29  4  0  0  0  0
 17 30  1  0  0  0  0
 31 32  1  0  0  0  0
 31 33  1  0  0  0  0
  5 34  1  0  0  0  0
  8 35  1  0  0  0  0
  8 36  1  0  0  0  0
  8 37  1  0  0  0  0
 11 38  1  0  0  0  0
 11 39  1  0  0  0  0
 11 40  1  0  0  0  0
 12 41  1  0  0  0  0
 13 42  1  0  0  0  0
 14 43  1  0  0  0  0
 14 44  1  0  0  0  0
 15 45  1  0  0  0  0
 15 46  1  0  0  0  0
 16 47  1  0  0  0  0
 16 48  1  0  0  0  0
 18 49  1  0  0  0  0
 18 50  1  0  0  0  0
 19 51  1  0  0  0  0
 19 52  1  0  0  0  0
 21 53  1  0  0  0  0
 22 54  1  0  0  0  0
 25 55  1  0  0  0  0
 25 56  1  0  0  0  0
 25 57  1  0  0  0  0
 28 58  1  0  0  0  0
 28 59  1  0  0  0  0
 28 60  1  0  0  0  0
 29 61  1  0  0  0  0
 30 62  1  0  0  0  0
 30 63  1  0  0  0  0
 30 64  1  0  0  0  0
 31 65  1  0  0  0  0
 32 66  1  0  0  0  0
 32 67  1  0  0  0  0
 32 68  1  0  0  0  0
 33 69  1  0  0  0  0
 33 70  1  0  0  0  0
 33 71  1  0  0  0  0
  1 72  1  0  0  0  0
M  CHG  1   1   1
M  END
