 xtb: 6.6.1 (8d0f1dd)
          06052419583D

 25 25  0     0  0            999 V2000
    2.9784    1.1434    0.5861 C   0  0  0  0  0  0  0  0  0  0  0  0
    2.2796    0.0275   -0.0426 N   0  0  0  0  0  0  0  0  0  0  0  0
    2.9512   -0.9129   -0.5874 C   0  0  0  0  0  0  0  0  0  0  0  0
    3.3326   -2.0155   -0.8432 N   0  0  0  0  0  0  0  0  0  0  0  0
    0.2088   -1.2226    0.1349 C   0  0  0  0  0  0  0  0  0  0  0  0
    0.8604   -0.0266   -0.0223 C   0  0  0  0  0  0  0  0  0  0  0  0
    0.0999    1.2015   -0.2073 C   0  0  0  0  0  0  0  0  0  0  0  0
    0.5878    2.2961   -0.4179 O   0  0  0  0  0  0  0  0  0  0  0  0
   -1.2777    1.0262   -0.1282 N   0  0  0  0  0  0  0  0  0  0  0  0
   -2.1277    2.1969   -0.2579 C   0  0  0  0  0  0  0  0  0  0  0  0
   -1.9421   -0.1739    0.0374 C   0  0  0  0  0  0  0  0  0  0  0  0
   -3.1449   -0.2404    0.0740 O   0  0  0  0  0  0  0  0  0  0  0  0
   -1.1369   -1.3063    0.1592 N   0  0  0  0  0  0  0  0  0  0  0  0
   -1.7848   -2.5899    0.3228 C   0  0  0  0  0  0  0  0  0  0  0  0
    2.7369    1.1679    1.6501 H   0  0  0  0  0  0  0  0  0  0  0  0
    4.0517    1.0203    0.4596 H   0  0  0  0  0  0  0  0  0  0  0  0
    2.6562    2.0827    0.1318 H   0  0  0  0  0  0  0  0  0  0  0  0
    3.9739   -2.4329   -1.4973 H   0  0  0  0  0  0  0  0  0  0  0  0
   -1.4914    3.0731   -0.3663 H   0  0  0  0  0  0  0  0  0  0  0  0
   -2.7768    2.0927   -1.1288 H   0  0  0  0  0  0  0  0  0  0  0  0
   -2.7599    2.2916    0.6262 H   0  0  0  0  0  0  0  0  0  0  0  0
   -1.4444   -3.0718    1.2396 H   0  0  0  0  0  0  0  0  0  0  0  0
   -1.5651   -3.2374   -0.5271 H   0  0  0  0  0  0  0  0  0  0  0  0
   -2.8601   -2.4244    0.3787 H   0  0  0  0  0  0  0  0  0  0  0  0
    0.7550   -2.1469    0.2571 H   0  0  0  0  0  0  0  0  0  0  0  0
  1  2  1  0  0  0  0
  2  3  4  0  0  0  0
  3  4  2  0  0  0  0
  2  6  1  0  0  0  0
  5  6  4  0  0  0  0
  6  7  1  0  0  0  0
  7  8  2  0  0  0  0
  7  9  1  0  0  0  0
  9 10  1  0  0  0  0
  9 11  1  0  0  0  0
 11 12  2  0  0  0  0
  5 13  4  0  0  0  0
 11 13  1  0  0  0  0
 13 14  1  0  0  0  0
  1 15  1  0  0  0  0
  1 16  1  0  0  0  0
  1 17  1  0  0  0  0
  4 18  1  0  0  0  0
 10 19  1  0  0  0  0
 10 20  1  0  0  0  0
 10 21  1  0  0  0  0
 14 22  1  0  0  0  0
 14 23  1  0  0  0  0
 14 24  1  0  0  0  0
  5 25  1  0  0  0  0
M  CHG  1   1   1
M  END
