 xtb: 6.6.1 (8d0f1dd)
          04062411143D

 72 72  0     0  0            999 V2000
   -1.8186    2.7402    2.1948 N   0  0  0  0  0  0  0  0  0  0  0  0
   -1.8265    1.9676    1.2146 C   0  0  0  0  0  0  0  0  0  0  0  0
   -3.0044    1.7664    0.2995 C   0  0  0  0  0  0  0  0  0  0  0  0
   -3.4684    0.3197    0.3908 C   0  0  0  0  0  0  0  0  0  0  0  0
   -4.3919   -0.1739   -0.5322 C   0  0  0  0  0  0  0  0  0  0  0  0
   -4.8587   -1.4769   -0.4634 C   0  0  0  0  0  0  0  0  0  0  0  0
   -5.7495   -2.0305   -1.3078 O   0  0  0  0  0  0  0  0  0  0  0  0
   -6.3185   -1.2464   -2.3299 C   0  0  0  0  0  0  0  0  0  0  0  0
   -4.3840   -2.3380    0.5663 C   0  0  0  0  0  0  0  0  0  0  0  0
   -4.8870   -3.5836    0.5543 O   0  0  0  0  0  0  0  0  0  0  0  0
   -4.5066   -4.4918    1.5630 C   0  0  0  0  0  0  0  0  0  0  0  0
   -3.4693   -1.8378    1.4820 C   0  0  0  0  0  0  0  0  0  0  0  0
   -3.0223   -0.5277    1.3961 C   0  0  0  0  0  0  0  0  0  0  0  0
   -2.4991    2.0701   -1.1346 C   0  0  0  0  0  0  0  0  0  0  0  0
   -1.5132    1.0293   -1.6854 C   0  0  0  0  0  0  0  0  0  0  0  0
   -0.1434    1.1932   -1.1519 C   0  0  0  0  0  0  0  0  0  0  0  0
    0.6993    0.2352   -0.8806 N   0  0  0  0  0  0  0  0  0  0  0  0
    2.0592    0.5379   -0.5064 C   0  0  0  0  0  0  0  0  0  0  0  0
    3.0211    0.3849   -1.6998 C   0  0  0  0  0  0  0  0  0  0  0  0
    4.4335    0.3225   -1.1939 C   0  0  0  0  0  0  0  0  0  0  0  0
    5.3665    1.3282   -1.4080 C   0  0  0  0  0  0  0  0  0  0  0  0
    6.6486    1.2335   -0.8884 C   0  0  0  0  0  0  0  0  0  0  0  0
    7.0286    0.1445   -0.1087 C   0  0  0  0  0  0  0  0  0  0  0  0
    8.2270   -0.0284    0.4692 O   0  0  0  0  0  0  0  0  0  0  0  0
    9.2264    0.9554    0.2999 C   0  0  0  0  0  0  0  0  0  0  0  0
    6.0645   -0.8707    0.1292 C   0  0  0  0  0  0  0  0  0  0  0  0
    6.4492   -1.9077    0.9264 O   0  0  0  0  0  0  0  0  0  0  0  0
    5.6250   -2.7336    1.4778 C   0  0  0  0  0  0  0  0  0  0  0  0
    4.8062   -0.7830   -0.4456 C   0  0  0  0  0  0  0  0  0  0  0  0
    0.3486   -1.1627   -0.9271 C   0  0  0  0  0  0  0  0  0  0  0  0
   -4.2134    2.6890    0.6371 C   0  0  0  0  0  0  0  0  0  0  0  0
   -4.7866    2.3754    2.0168 C   0  0  0  0  0  0  0  0  0  0  0  0
   -3.8829    4.1762    0.5430 C   0  0  0  0  0  0  0  0  0  0  0  0
   -4.7635    0.4733   -1.3092 H   0  0  0  0  0  0  0  0  0  0  0  0
   -6.8629   -0.3891   -1.9225 H   0  0  0  0  0  0  0  0  0  0  0  0
   -7.0161   -1.9025   -2.8467 H   0  0  0  0  0  0  0  0  0  0  0  0
   -5.5600   -0.8975   -3.0382 H   0  0  0  0  0  0  0  0  0  0  0  0
   -4.7882   -4.1274    2.5552 H   0  0  0  0  0  0  0  0  0  0  0  0
   -5.0491   -5.4103    1.3479 H   0  0  0  0  0  0  0  0  0  0  0  0
   -3.4310   -4.6909    1.5379 H   0  0  0  0  0  0  0  0  0  0  0  0
   -3.1007   -2.4619    2.2793 H   0  0  0  0  0  0  0  0  0  0  0  0
   -2.3316   -0.1705    2.1436 H   0  0  0  0  0  0  0  0  0  0  0  0
   -3.3588    2.1201   -1.8018 H   0  0  0  0  0  0  0  0  0  0  0  0
   -2.0236    3.0514   -1.1406 H   0  0  0  0  0  0  0  0  0  0  0  0
   -1.8985    0.0233   -1.5191 H   0  0  0  0  0  0  0  0  0  0  0  0
   -1.4493    1.1777   -2.7710 H   0  0  0  0  0  0  0  0  0  0  0  0
   -0.9487    1.3773    0.8973 H   0  0  0  0  0  0  0  0  0  0  0  0
    0.2326    2.2052   -1.0755 H   0  0  0  0  0  0  0  0  0  0  0  0
    2.3534   -0.1746    0.2709 H   0  0  0  0  0  0  0  0  0  0  0  0
    2.1238    1.5515   -0.1074 H   0  0  0  0  0  0  0  0  0  0  0  0
    2.8909    1.2130   -2.3984 H   0  0  0  0  0  0  0  0  0  0  0  0
    2.7923   -0.5498   -2.2145 H   0  0  0  0  0  0  0  0  0  0  0  0
    5.1035    2.1953   -1.9945 H   0  0  0  0  0  0  0  0  0  0  0  0
    7.3518    2.0257   -1.0875 H   0  0  0  0  0  0  0  0  0  0  0  0
    8.9114    1.9183    0.7110 H   0  0  0  0  0  0  0  0  0  0  0  0
    9.4940    1.0740   -0.7537 H   0  0  0  0  0  0  0  0  0  0  0  0
   10.0893    0.5910    0.8538 H   0  0  0  0  0  0  0  0  0  0  0  0
    6.0892   -3.5103    2.0636 H   0  0  0  0  0  0  0  0  0  0  0  0
    4.5477   -2.6532    1.3987 H   0  0  0  0  0  0  0  0  0  0  0  0
    2.5519   -1.9563    0.8780 H   0  0  0  0  0  0  0  0  0  0  0  0
    4.0909   -1.5731   -0.2855 H   0  0  0  0  0  0  0  0  0  0  0  0
    0.3671   -1.5396   -1.9497 H   0  0  0  0  0  0  0  0  0  0  0  0
   -0.6430   -1.3266   -0.5080 H   0  0  0  0  0  0  0  0  0  0  0  0
    1.0715   -1.7242   -0.3296 H   0  0  0  0  0  0  0  0  0  0  0  0
   -4.9876    2.4665   -0.1063 H   0  0  0  0  0  0  0  0  0  0  0  0
   -4.0558    2.6067    2.7852 H   0  0  0  0  0  0  0  0  0  0  0  0
   -5.0663    1.3279    2.0983 H   0  0  0  0  0  0  0  0  0  0  0  0
   -5.6725    2.9806    2.1894 H   0  0  0  0  0  0  0  0  0  0  0  0
   -3.0785    4.4273    1.2272 H   0  0  0  0  0  0  0  0  0  0  0  0
   -3.6039    4.4692   -0.4656 H   0  0  0  0  0  0  0  0  0  0  0  0
   -4.7596    4.7535    0.8242 H   0  0  0  0  0  0  0  0  0  0  0  0
   -0.9650    2.8166    2.7384 H   0  0  0  0  0  0  0  0  0  0  0  0
  1  2  2  0  0  0  0
  2  3  1  0  0  0  0
  3  4  1  0  0  0  0
  4  5  4  0  0  0  0
  5  6  4  0  0  0  0
  6  7  1  0  0  0  0
  7  8  1  0  0  0  0
  6  9  4  0  0  0  0
  9 10  1  0  0  0  0
 10 11  1  0  0  0  0
  9 12  4  0  0  0  0
  4 13  4  0  0  0  0
 12 13  4  0  0  0  0
  3 14  1  0  0  0  0
 14 15  1  0  0  0  0
 15 16  1  0  0  0  0
 16 17  2  0  0  0  0
 17 18  1  0  0  0  0
 18 19  1  0  0  0  0
 19 20  1  0  0  0  0
 20 21  4  0  0  0  0
 21 22  4  0  0  0  0
 22 23  4  0  0  0  0
 23 24  1  0  0  0  0
 24 25  1  0  0  0  0
 23 26  4  0  0  0  0
 26 27  1  0  0  0  0
 27 28  4  0  0  0  0
 20 29  4  0  0  0  0
 26 29  4  0  0  0  0
 17 30  1  0  0  0  0
  3 31  1  0  0  0  0
 31 32  1  0  0  0  0
 31 33  1  0  0  0  0
  5 34  1  0  0  0  0
  8 35  1  0  0  0  0
  8 36  1  0  0  0  0
  8 37  1  0  0  0  0
 11 38  1  0  0  0  0
 11 39  1  0  0  0  0
 11 40  1  0  0  0  0
 12 41  1  0  0  0  0
 13 42  1  0  0  0  0
 14 43  1  0  0  0  0
 14 44  1  0  0  0  0
 15 45  1  0  0  0  0
 15 46  1  0  0  0  0
  2 47  1  0  0  0  0
 16 48  1  0  0  0  0
 18 49  1  0  0  0  0
 18 50  1  0  0  0  0
 19 51  1  0  0  0  0
 19 52  1  0  0  0  0
 21 53  1  0  0  0  0
 22 54  1  0  0  0  0
 25 55  1  0  0  0  0
 25 56  1  0  0  0  0
 25 57  1  0  0  0  0
 28 58  1  0  0  0  0
 28 59  1  0  0  0  0
 29 61  1  0  0  0  0
 30 62  1  0  0  0  0
 30 63  1  0  0  0  0
 30 64  1  0  0  0  0
 31 65  1  0  0  0  0
 32 66  1  0  0  0  0
 32 67  1  0  0  0  0
 32 68  1  0  0  0  0
 33 69  1  0  0  0  0
 33 70  1  0  0  0  0
 33 71  1  0  0  0  0
  1 72  1  0  0  0  0
M  CHG  1   1   1
M  END
