 xtb: 6.6.1 (8d0f1dd)
          06052419573D

 25 26  0     0  0            999 V2000
    3.2891    1.0286    0.0127 C   0  0  0  0  0  0  0  0  0  0  0  0
    2.3486   -0.0592   -0.0004 N   0  0  0  0  0  0  0  0  0  0  0  0
    2.6133   -1.3531   -0.0053 C   0  0  0  0  0  0  0  0  0  0  0  0
    1.4599   -2.0622   -0.0048 N   0  0  0  0  0  0  0  0  0  0  0  0
    0.4292   -1.1719    0.0014 C   0  0  0  0  0  0  0  0  0  0  0  0
    0.9866    0.1036    0.0040 C   0  0  0  0  0  0  0  0  0  0  0  0
    0.2125    1.2972   -0.0075 C   0  0  0  0  0  0  0  0  0  0  0  0
   -1.3043    3.3116    0.0252 O   0  0  0  0  0  0  0  0  0  0  0  0
   -1.0895    1.0188   -0.0056 N   0  0  0  0  0  0  0  0  0  0  0  0
   -2.0312    2.1407   -0.0154 C   0  0  0  0  0  0  0  0  0  0  0  0
   -1.7326   -0.2317    0.0006 C   0  0  0  0  0  0  0  0  0  0  0  0
   -2.9278   -0.3362    0.0012 O   0  0  0  0  0  0  0  0  0  0  0  0
   -0.8988   -1.3640    0.0022 N   0  0  0  0  0  0  0  0  0  0  0  0
   -1.4991   -2.6846    0.0003 C   0  0  0  0  0  0  0  0  0  0  0  0
    3.7824    1.0922    0.9833 H   0  0  0  0  0  0  0  0  0  0  0  0
    4.0439    0.8894   -0.7602 H   0  0  0  0  0  0  0  0  0  0  0  0
    2.7354    1.9515   -0.1647 H   0  0  0  0  0  0  0  0  0  0  0  0
    3.5932   -1.7882   -0.0101 H   0  0  0  0  0  0  0  0  0  0  0  0
   -1.9138    4.0562    0.0574 H   0  0  0  0  0  0  0  0  0  0  0  0
   -2.6421    2.0536   -0.9283 H   0  0  0  0  0  0  0  0  0  0  0  0
   -2.6958    2.0227    0.8547 H   0  0  0  0  0  0  0  0  0  0  0  0
   -1.2034   -3.2389    0.8914 H   0  0  0  0  0  0  0  0  0  0  0  0
   -1.2107   -3.2336   -0.8965 H   0  0  0  0  0  0  0  0  0  0  0  0
   -2.5804   -2.5530    0.0050 H   0  0  0  0  0  0  0  0  0  0  0  0
    1.3956   -3.0710   -0.0094 H   0  0  0  0  0  0  0  0  0  0  0  0
  1  2  1  0  0  0  0
  2  3  4  0  0  0  0
  3  4  4  0  0  0  0
  4  5  1  0  0  0  0
  2  6  1  0  0  0  0
  5  6  4  0  0  0  0
  6  7  1  0  0  0  0
  7  9  4  0  0  0  0
  8 10  1  0  0  0  0
  9 10  1  0  0  0  0
  9 11  1  0  0  0  0
 11 12  2  0  0  0  0
  5 13  4  0  0  0  0
 11 13  1  0  0  0  0
 13 14  1  0  0  0  0
  1 15  1  0  0  0  0
  1 16  1  0  0  0  0
  1 17  1  0  0  0  0
  3 18  1  0  0  0  0
  8 19  1  0  0  0  0
 10 20  1  0  0  0  0
 10 21  1  0  0  0  0
 14 22  1  0  0  0  0
 14 23  1  0  0  0  0
 14 24  1  0  0  0  0
  4 25  1  0  0  0  0
M  CHG  1   1   1
M  END
