          24
 
C              3.38439100        0.60203343        0.00909723
N              2.26996396       -0.30606657       -0.00355540
C              2.32554781       -1.64012625       -0.00926420
N              1.06968735       -2.15138268       -0.00480787
C              0.19267357       -1.10849520        0.00430594
C              0.94353716        0.06036008        0.00617271
C              0.31870197        1.36144566       -0.00134836
O              0.89534696        2.42893153       -0.01252347
N             -1.07658322        1.25788432        0.00242277
C             -1.83774106        2.49716305        0.00633575
C             -1.84565117        0.10576814        0.00078852
O             -3.04591938        0.13012110       -0.00036747
N             -1.15435375       -1.13317278        0.00220300
C             -1.87414624       -2.34553464       -0.00139021
H              3.90509165        0.55220866        0.96713219
H              4.08771171        0.35061543       -0.78458672
H              3.01218245        1.61596254       -0.13684731
H              3.22355480       -2.22437900       -0.01813268
H             -1.13411070        3.32755632        0.01389108
H             -2.47239493        2.54756064       -0.87925179
H             -2.47889831        2.53604415        0.88783397
H             -2.25769268       -2.69980401        0.93899337
H             -2.35609971       -2.63232086       -0.91968096
H              0.82282001       -3.13134339       -0.01162102
