 xtb: 6.6.1 (8d0f1dd)
          04062411163D

 72 73  0     0  0            999 V2000
   -1.3516    2.7000    2.0288 N   0  0  0  0  0  0  0  0  0  0  0  0
   -1.4629    1.8973    1.0761 C   0  0  0  0  0  0  0  0  0  0  0  0
   -2.6983    1.7704    0.2250 C   0  0  0  0  0  0  0  0  0  0  0  0
   -3.2420    0.3565    0.3184 C   0  0  0  0  0  0  0  0  0  0  0  0
   -4.2419   -0.0601   -0.5630 C   0  0  0  0  0  0  0  0  0  0  0  0
   -4.8028   -1.3238   -0.4771 C   0  0  0  0  0  0  0  0  0  0  0  0
   -5.7645   -1.8070   -1.2895 O   0  0  0  0  0  0  0  0  0  0  0  0
   -6.3092   -0.9759   -2.2874 C   0  0  0  0  0  0  0  0  0  0  0  0
   -4.3615   -2.2175    0.5372 C   0  0  0  0  0  0  0  0  0  0  0  0
   -4.9738   -3.4172    0.5581 O   0  0  0  0  0  0  0  0  0  0  0  0
   -4.6753   -4.3222    1.5956 C   0  0  0  0  0  0  0  0  0  0  0  0
   -3.3694   -1.7966    1.4089 C   0  0  0  0  0  0  0  0  0  0  0  0
   -2.8171   -0.5277    1.2986 C   0  0  0  0  0  0  0  0  0  0  0  0
   -2.2689    2.1174   -1.2315 C   0  0  0  0  0  0  0  0  0  0  0  0
   -1.6860    1.0025   -2.1124 C   0  0  0  0  0  0  0  0  0  0  0  0
   -0.1805    0.7331   -1.9982 C   0  0  0  0  0  0  0  0  0  0  0  0
    0.2422   -0.1286   -0.9069 N   0  0  0  0  0  0  0  0  0  0  0  0
    1.5648    0.1168   -0.3749 C   0  0  0  0  0  0  0  0  0  0  0  0
    2.6542   -0.3870   -1.3444 C   0  0  0  0  0  0  0  0  0  0  0  0
    4.0312   -0.1129   -0.8097 C   0  0  0  0  0  0  0  0  0  0  0  0
    4.6247    1.1254   -1.0008 C   0  0  0  0  0  0  0  0  0  0  0  0
    5.9061    1.3781   -0.5380 C   0  0  0  0  0  0  0  0  0  0  0  0
    6.6228    0.3945    0.1295 C   0  0  0  0  0  0  0  0  0  0  0  0
    7.8774    0.5185    0.5973 O   0  0  0  0  0  0  0  0  0  0  0  0
    8.5842    1.7157    0.3661 C   0  0  0  0  0  0  0  0  0  0  0  0
    6.0144   -0.8732    0.3490 C   0  0  0  0  0  0  0  0  0  0  0  0
    6.7767   -1.7673    1.0070 O   0  0  0  0  0  0  0  0  0  0  0  0
    6.2800   -3.0651    1.2333 C   0  0  0  0  0  0  0  0  0  0  0  0
    4.7299   -1.1010   -0.1209 C   0  0  0  0  0  0  0  0  0  0  0  0
   -0.3716   -1.2686   -0.6354 C   0  0  0  0  0  0  0  0  0  0  0  0
   -3.8401    2.7387    0.6637 C   0  0  0  0  0  0  0  0  0  0  0  0
   -4.3392    2.4232    2.0717 C   0  0  0  0  0  0  0  0  0  0  0  0
   -3.4529    4.2126    0.5760 C   0  0  0  0  0  0  0  0  0  0  0  0
   -4.5969    0.6225   -1.3175 H   0  0  0  0  0  0  0  0  0  0  0  0
   -6.7779   -0.0860   -1.8569 H   0  0  0  0  0  0  0  0  0  0  0  0
   -7.0679   -1.5769   -2.7848 H   0  0  0  0  0  0  0  0  0  0  0  0
   -5.5517   -0.6745   -3.0183 H   0  0  0  0  0  0  0  0  0  0  0  0
   -4.8819   -3.8867    2.5777 H   0  0  0  0  0  0  0  0  0  0  0  0
   -5.3294   -5.1768    1.4348 H   0  0  0  0  0  0  0  0  0  0  0  0
   -3.6324   -4.6518    1.5538 H   0  0  0  0  0  0  0  0  0  0  0  0
   -3.0253   -2.4486    2.1950 H   0  0  0  0  0  0  0  0  0  0  0  0
   -2.0726   -0.2250    2.0181 H   0  0  0  0  0  0  0  0  0  0  0  0
   -3.1576    2.4867   -1.7450 H   0  0  0  0  0  0  0  0  0  0  0  0
   -1.5617    2.9480   -1.1908 H   0  0  0  0  0  0  0  0  0  0  0  0
   -2.2471    0.0817   -1.9651 H   0  0  0  0  0  0  0  0  0  0  0  0
   -1.8466    1.3120   -3.1470 H   0  0  0  0  0  0  0  0  0  0  0  0
   -0.6532    1.2310    0.7515 H   0  0  0  0  0  0  0  0  0  0  0  0
    0.3432    1.6859   -1.8847 H   0  0  0  0  0  0  0  0  0  0  0  0
    1.6710   -0.3993    0.5818 H   0  0  0  0  0  0  0  0  0  0  0  0
    1.7000    1.1886   -0.2086 H   0  0  0  0  0  0  0  0  0  0  0  0
    2.5365    0.1176   -2.3045 H   0  0  0  0  0  0  0  0  0  0  0  0
    2.5155   -1.4585   -1.4975 H   0  0  0  0  0  0  0  0  0  0  0  0
    4.0964    1.9021   -1.5328 H   0  0  0  0  0  0  0  0  0  0  0  0
    6.3454    2.3464   -0.7128 H   0  0  0  0  0  0  0  0  0  0  0  0
    8.1064    2.5659    0.8622 H   0  0  0  0  0  0  0  0  0  0  0  0
    8.6800    1.9228   -0.7040 H   0  0  0  0  0  0  0  0  0  0  0  0
    9.5726    1.5581    0.7932 H   0  0  0  0  0  0  0  0  0  0  0  0
    7.0753   -3.5955    1.7532 H   0  0  0  0  0  0  0  0  0  0  0  0
    5.3851   -3.0481    1.8635 H   0  0  0  0  0  0  0  0  0  0  0  0
    6.0571   -3.5786    0.2929 H   0  0  0  0  0  0  0  0  0  0  0  0
    4.2661   -2.0637    0.0260 H   0  0  0  0  0  0  0  0  0  0  0  0
    0.1457    0.2766   -2.9390 H   0  0  0  0  0  0  0  0  0  0  0  0
   -1.2674   -1.5500   -1.1498 H   0  0  0  0  0  0  0  0  0  0  0  0
    0.0209   -1.9088    0.1305 H   0  0  0  0  0  0  0  0  0  0  0  0
   -4.6719    2.5653   -0.0295 H   0  0  0  0  0  0  0  0  0  0  0  0
   -3.5486    2.5932    2.7957 H   0  0  0  0  0  0  0  0  0  0  0  0
   -4.6756    1.3919    2.1494 H   0  0  0  0  0  0  0  0  0  0  0  0
   -5.1749    3.0738    2.3154 H   0  0  0  0  0  0  0  0  0  0  0  0
   -2.6218    4.4214    1.2420 H   0  0  0  0  0  0  0  0  0  0  0  0
   -3.1833    4.5048   -0.4352 H   0  0  0  0  0  0  0  0  0  0  0  0
   -4.2988    4.8216    0.8844 H   0  0  0  0  0  0  0  0  0  0  0  0
   -0.4655    2.7262    2.5238 H   0  0  0  0  0  0  0  0  0  0  0  0
  1  2  2  0  0  0  0
  2  3  1  0  0  0  0
  3  4  1  0  0  0  0
  4  5  4  0  0  0  0
  5  6  4  0  0  0  0
  6  7  1  0  0  0  0
  7  8  1  0  0  0  0
  6  9  4  0  0  0  0
  9 10  1  0  0  0  0
 10 11  1  0  0  0  0
  9 12  4  0  0  0  0
  4 13  4  0  0  0  0
 12 13  4  0  0  0  0
  3 14  1  0  0  0  0
 14 15  1  0  0  0  0
 15 16  1  0  0  0  0
 16 17  1  0  0  0  0
 17 18  1  0  0  0  0
 18 19  1  0  0  0  0
 19 20  1  0  0  0  0
 20 21  4  0  0  0  0
 21 22  4  0  0  0  0
 22 23  4  0  0  0  0
 23 24  1  0  0  0  0
 24 25  1  0  0  0  0
 23 26  4  0  0  0  0
 26 27  1  0  0  0  0
 27 28  1  0  0  0  0
 20 29  4  0  0  0  0
 26 29  4  0  0  0  0
 17 30  4  0  0  0  0
  3 31  1  0  0  0  0
 31 32  1  0  0  0  0
 31 33  1  0  0  0  0
  5 34  1  0  0  0  0
  8 35  1  0  0  0  0
  8 36  1  0  0  0  0
  8 37  1  0  0  0  0
 11 38  1  0  0  0  0
 11 39  1  0  0  0  0
 11 40  1  0  0  0  0
 12 41  1  0  0  0  0
 13 42  1  0  0  0  0
 14 43  1  0  0  0  0
 14 44  1  0  0  0  0
 15 45  1  0  0  0  0
 15 46  1  0  0  0  0
  2 47  1  0  0  0  0
 16 48  1  0  0  0  0
 18 49  1  0  0  0  0
 18 50  1  0  0  0  0
 19 51  1  0  0  0  0
 19 52  1  0  0  0  0
 21 53  1  0  0  0  0
 22 54  1  0  0  0  0
 25 55  1  0  0  0  0
 25 56  1  0  0  0  0
 25 57  1  0  0  0  0
 28 58  1  0  0  0  0
 28 59  1  0  0  0  0
 28 60  1  0  0  0  0
 29 61  1  0  0  0  0
 16 62  1  0  0  0  0
 30 63  1  0  0  0  0
 30 64  1  0  0  0  0
 31 65  1  0  0  0  0
 32 66  1  0  0  0  0
 32 67  1  0  0  0  0
 32 68  1  0  0  0  0
 33 69  1  0  0  0  0
 33 70  1  0  0  0  0
 33 71  1  0  0  0  0
  1 72  1  0  0  0  0
M  CHG  1   1   1
M  END
