 xtb: 6.6.1 (8d0f1dd)
          06052419583D

 25 25  0     0  0            999 V2000
    3.3095    1.2534    0.0190 C   0  0  0  0  0  0  0  0  0  0  0  0
    2.3862    0.1516    0.0028 N   0  0  0  0  0  0  0  0  0  0  0  0
    2.6920   -1.1481   -0.0020 C   0  0  0  0  0  0  0  0  0  0  0  0
    1.5550   -1.8868   -0.0018 N   0  0  0  0  0  0  0  0  0  0  0  0
    0.4972   -1.0277    0.0036 C   0  0  0  0  0  0  0  0  0  0  0  0
    1.0144    0.2616    0.0075 C   0  0  0  0  0  0  0  0  0  0  0  0
    0.1557    1.4217   -0.0029 C   0  0  0  0  0  0  0  0  0  0  0  0
    0.5210    2.5787   -0.0126 O   0  0  0  0  0  0  0  0  0  0  0  0
   -1.1951    1.0572   -0.0041 N   0  0  0  0  0  0  0  0  0  0  0  0
   -2.1760    2.1309   -0.0036 C   0  0  0  0  0  0  0  0  0  0  0  0
   -1.7334   -0.2191   -0.0079 C   0  0  0  0  0  0  0  0  0  0  0  0
   -2.9167   -0.4213   -0.0134 O   0  0  0  0  0  0  0  0  0  0  0  0
   -0.8211   -1.3057   -0.0034 N   0  0  0  0  0  0  0  0  0  0  0  0
   -1.2996   -2.6319   -0.0089 C   0  0  0  0  0  0  0  0  0  0  0  0
    3.8268    1.3024    0.9789 H   0  0  0  0  0  0  0  0  0  0  0  0
    4.0505    1.1391   -0.7720 H   0  0  0  0  0  0  0  0  0  0  0  0
    2.7535    2.1791   -0.1288 H   0  0  0  0  0  0  0  0  0  0  0  0
    3.6841   -1.5527   -0.0074 H   0  0  0  0  0  0  0  0  0  0  0  0
   -1.6415    3.0790    0.0060 H   0  0  0  0  0  0  0  0  0  0  0  0
   -2.8056    2.0610   -0.8915 H   0  0  0  0  0  0  0  0  0  0  0  0
   -2.8163    2.0482    0.8756 H   0  0  0  0  0  0  0  0  0  0  0  0
   -1.6130   -3.0523    0.9303 H   0  0  0  0  0  0  0  0  0  0  0  0
   -1.7156   -3.0042   -0.9288 H   0  0  0  0  0  0  0  0  0  0  0  0
   -4.0489   -3.7003    0.0060 H   0  0  0  0  0  0  0  0  0  0  0  0
    1.4971   -2.8957   -0.0090 H   0  0  0  0  0  0  0  0  0  0  0  0
  1  2  1  0  0  0  0
  2  3  4  0  0  0  0
  3  4  4  0  0  0  0
  4  5  1  0  0  0  0
  2  6  1  0  0  0  0
  5  6  4  0  0  0  0
  6  7  1  0  0  0  0
  7  8  2  0  0  0  0
  7  9  1  0  0  0  0
  9 10  1  0  0  0  0
  9 11  1  0  0  0  0
 11 12  2  0  0  0  0
  5 13  1  0  0  0  0
 11 13  1  0  0  0  0
 13 14  1  0  0  0  0
  1 15  1  0  0  0  0
  1 16  1  0  0  0  0
  1 17  1  0  0  0  0
  3 18  1  0  0  0  0
 10 19  1  0  0  0  0
 10 20  1  0  0  0  0
 10 21  1  0  0  0  0
 14 22  1  0  0  0  0
 14 23  1  0  0  0  0
  4 25  1  0  0  0  0
M  CHG  1   1   1
M  END
