 xtb: 6.6.1 (8d0f1dd)
          06052419593D

 25 26  0     0  0            999 V2000
    3.3301    0.8777    0.4874 C   0  0  0  0  0  0  0  0  0  0  0  0
    1.9545    0.4673    0.2148 N   0  0  0  0  0  0  0  0  0  0  0  0
    1.8277   -0.5323   -0.6942 C   0  0  0  0  0  0  0  0  0  0  0  0
    0.8863   -1.4633   -0.7880 N   0  0  0  0  0  0  0  0  0  0  0  0
   -0.2597   -1.6952   -0.0828 C   0  0  0  0  0  0  0  0  0  0  0  0
    0.9640    1.1401    0.9234 C   0  0  0  0  0  0  0  0  0  0  0  0
   -0.4440    1.1231    0.3820 C   0  0  0  0  0  0  0  0  0  0  0  0
    1.2195    1.8273    1.8770 O   0  0  0  0  0  0  0  0  0  0  0  0
   -0.7809    1.9394   -0.4883 N   0  0  0  0  0  0  0  0  0  0  0  0
   -2.0999    2.1731   -0.9682 C   0  0  0  0  0  0  0  0  0  0  0  0
   -1.1935   -0.9983    0.6670 C   0  0  0  0  0  0  0  0  0  0  0  0
   -1.3518    0.2488    1.0552 O   0  0  0  0  0  0  0  0  0  0  0  0
   -2.0589   -2.0358    0.7713 N   0  0  0  0  0  0  0  0  0  0  0  0
   -1.1579   -2.9161    0.0201 C   0  0  0  0  0  0  0  0  0  0  0  0
    3.8932    0.0574    0.9308 H   0  0  0  0  0  0  0  0  0  0  0  0
    3.8153    1.2000   -0.4333 H   0  0  0  0  0  0  0  0  0  0  0  0
    3.3024    1.7092    1.1893 H   0  0  0  0  0  0  0  0  0  0  0  0
    2.6807   -0.6663   -1.3466 H   0  0  0  0  0  0  0  0  0  0  0  0
   -2.3740    3.1838   -0.6619 H   0  0  0  0  0  0  0  0  0  0  0  0
   -2.0606    2.1625   -2.0589 H   0  0  0  0  0  0  0  0  0  0  0  0
   -2.8459    1.4646   -0.5971 H   0  0  0  0  0  0  0  0  0  0  0  0
   -0.7647   -3.7523    0.5999 H   0  0  0  0  0  0  0  0  0  0  0  0
   -1.6032   -3.2732   -0.9087 H   0  0  0  0  0  0  0  0  0  0  0  0
   -2.7947   -2.2404    1.4231 H   0  0  0  0  0  0  0  0  0  0  0  0
    1.0767   -2.1828   -1.4823 H   0  0  0  0  0  0  0  0  0  0  0  0
  1  2  1  0  0  0  0
  2  3  4  0  0  0  0
  3  4  4  0  0  0  0
  4  5  1  0  0  0  0
  2  6  1  0  0  0  0
  6  7  1  0  0  0  0
  6  8  2  0  0  0  0
  7  9  2  0  0  0  0
  9 10  1  0  0  0  0
  5 11  4  0  0  0  0
  7 12  1  0  0  0  0
 11 12  1  0  0  0  0
 11 13  4  0  0  0  0
  5 14  1  0  0  0  0
 13 14  1  0  0  0  0
  1 15  1  0  0  0  0
  1 16  1  0  0  0  0
  1 17  1  0  0  0  0
  3 18  1  0  0  0  0
 10 19  1  0  0  0  0
 10 20  1  0  0  0  0
 10 21  1  0  0  0  0
 14 22  1  0  0  0  0
 14 23  1  0  0  0  0
 13 24  1  0  0  0  0
  4 25  1  0  0  0  0
M  CHG  1   1   1
M  END
