          37
 
N             -1.68666416        2.90698545        2.50949471
C             -1.81056984        2.33030066        1.40910864
C             -3.10680391        2.28422376        0.63604569
C             -3.52360808        0.81235564        0.48887020
C             -4.41343885        0.43930009       -0.51545373
C             -4.83061617       -0.87570800       -0.65351535
O             -5.67512939       -1.32850443       -1.59817227
C             -6.21025365       -0.42666181       -2.53822759
C             -4.34979338       -1.86137657        0.25369820
O             -4.80771081       -3.11059183        0.04874949
C             -4.44083983       -4.13478577        0.94405993
C             -3.46965707       -1.47397003        1.25343232
C             -3.05874556       -0.15218384        1.36827441
C             -2.82000037        2.85195227       -0.69457539
C             -4.29444746        3.05338343        1.29921910
C             -4.69207880        2.46433507        2.64635655
C             -3.96947391        4.53692918        1.44252567
H             -4.78786174        1.18749352       -1.19284762
H             -6.82617972        0.33755555       -2.05557613
H             -6.83379581       -1.02805285       -3.19625211
H             -5.42254472        0.05434734       -3.12596082
H             -4.74188346       -3.89857245        1.96881052
H             -4.97432481       -5.02178168        0.60712422
H             -3.36351924       -4.32683724        0.91387582
H             -3.10115406       -2.19676605        1.96365636
H             -2.38946536        0.11546486        2.17076546
H             -3.61364658        3.23153363       -1.30863984
H             -1.81515890        2.94603628       -1.05516929
H             -0.99193738        1.82115202        0.87684545
H             -5.14120312        2.94643674        0.61090348
H             -3.86481709        2.54101902        3.34564737
H             -4.98423298        1.42102622        2.55228488
H             -5.53539291        3.02070574        3.04786966
H             -3.17718324        4.67724119        2.17162215
H             -3.64776330        4.95877699        0.49234282
H             -4.85065485        5.07512220        1.78158178
H             -0.77002008        2.91659481        2.94553690
