 xtb: 6.6.1 (8d0f1dd)
          04062411163D

 72 72  0     0  0            999 V2000
   -1.8167    3.0413    2.0949 N   0  0  0  0  0  0  0  0  0  0  0  0
   -1.8797    2.1648    1.2082 C   0  0  0  0  0  0  0  0  0  0  0  0
   -3.0554    1.9557    0.2944 C   0  0  0  0  0  0  0  0  0  0  0  0
   -3.6413    0.5703    0.5367 C   0  0  0  0  0  0  0  0  0  0  0  0
   -4.5874    0.0564   -0.3463 C   0  0  0  0  0  0  0  0  0  0  0  0
   -5.1652   -1.1913   -0.1274 C   0  0  0  0  0  0  0  0  0  0  0  0
   -6.0911   -1.7631   -0.9270 O   0  0  0  0  0  0  0  0  0  0  0  0
   -6.5949   -1.0447   -2.0300 C   0  0  0  0  0  0  0  0  0  0  0  0
   -4.7816   -1.9378    0.9927 C   0  0  0  0  0  0  0  0  0  0  0  0
   -2.2792   -3.5660   -0.1960 O   0  0  0  0  0  0  0  0  0  0  0  0
   -2.9154   -4.5296    0.1417 C   0  0  0  0  0  0  0  0  0  0  0  0
   -3.8458   -1.4302    1.8656 C   0  0  0  0  0  0  0  0  0  0  0  0
   -3.2767   -0.1837    1.6453 C   0  0  0  0  0  0  0  0  0  0  0  0
   -2.4952    2.0536   -1.1489 C   0  0  0  0  0  0  0  0  0  0  0  0
   -1.6241    0.8585   -1.5666 C   0  0  0  0  0  0  0  0  0  0  0  0
   -0.2684    0.8916   -0.9764 C   0  0  0  0  0  0  0  0  0  0  0  0
    0.4199   -0.1699   -0.6014 N   0  0  0  0  0  0  0  0  0  0  0  0
    1.8010   -0.0474   -0.1998 C   0  0  0  0  0  0  0  0  0  0  0  0
    2.7591   -0.4509   -1.3372 C   0  0  0  0  0  0  0  0  0  0  0  0
    4.1809   -0.2283   -0.9048 C   0  0  0  0  0  0  0  0  0  0  0  0
    4.7964    0.9958   -1.1116 C   0  0  0  0  0  0  0  0  0  0  0  0
    6.0959    1.2183   -0.6840 C   0  0  0  0  0  0  0  0  0  0  0  0
    6.8061    0.2188   -0.0340 C   0  0  0  0  0  0  0  0  0  0  0  0
    8.0668    0.3223    0.4228 O   0  0  0  0  0  0  0  0  0  0  0  0
    8.7703    1.5288    0.2340 C   0  0  0  0  0  0  0  0  0  0  0  0
    6.1816   -1.0412    0.1849 C   0  0  0  0  0  0  0  0  0  0  0  0
    6.9422   -1.9547    0.8183 O   0  0  0  0  0  0  0  0  0  0  0  0
    6.4224   -3.2413    1.0558 C   0  0  0  0  0  0  0  0  0  0  0  0
    4.8805   -1.2391   -0.2506 C   0  0  0  0  0  0  0  0  0  0  0  0
   -0.1379   -1.4988   -0.6519 C   0  0  0  0  0  0  0  0  0  0  0  0
   -4.1903    3.0029    0.4962 C   0  0  0  0  0  0  0  0  0  0  0  0
   -4.8084    2.8938    1.8882 C   0  0  0  0  0  0  0  0  0  0  0  0
   -3.7398    4.4396    0.2452 C   0  0  0  0  0  0  0  0  0  0  0  0
   -4.8845    0.6389   -1.2030 H   0  0  0  0  0  0  0  0  0  0  0  0
   -7.0628   -0.1068   -1.7164 H   0  0  0  0  0  0  0  0  0  0  0  0
   -7.3484   -1.6881   -2.4800 H   0  0  0  0  0  0  0  0  0  0  0  0
   -5.8123   -0.8377   -2.7668 H   0  0  0  0  0  0  0  0  0  0  0  0
   -5.2425   -2.8981    1.1551 H   0  0  0  0  0  0  0  0  0  0  0  0
   -3.7662   -4.9103   -0.4394 H   0  0  0  0  0  0  0  0  0  0  0  0
   -2.6803   -5.1003    1.0518 H   0  0  0  0  0  0  0  0  0  0  0  0
   -3.5587   -2.0012    2.7350 H   0  0  0  0  0  0  0  0  0  0  0  0
   -2.5691    0.2079    2.3596 H   0  0  0  0  0  0  0  0  0  0  0  0
   -3.3320    2.1293   -1.8423 H   0  0  0  0  0  0  0  0  0  0  0  0
   -1.9125    2.9713   -1.2386 H   0  0  0  0  0  0  0  0  0  0  0  0
   -2.1371   -0.0744   -1.3333 H   0  0  0  0  0  0  0  0  0  0  0  0
   -1.5078    0.9055   -2.6576 H   0  0  0  0  0  0  0  0  0  0  0  0
   -1.0474    1.4763    0.9653 H   0  0  0  0  0  0  0  0  0  0  0  0
    0.2513    1.8393   -0.9634 H   0  0  0  0  0  0  0  0  0  0  0  0
    1.9786   -0.6859    0.6693 H   0  0  0  0  0  0  0  0  0  0  0  0
    2.0078    0.9862    0.0859 H   0  0  0  0  0  0  0  0  0  0  0  0
    2.5375    0.1582   -2.2152 H   0  0  0  0  0  0  0  0  0  0  0  0
    2.6017   -1.4988   -1.5946 H   0  0  0  0  0  0  0  0  0  0  0  0
    4.2683    1.7869   -1.6219 H   0  0  0  0  0  0  0  0  0  0  0  0
    6.5505    2.1780   -0.8662 H   0  0  0  0  0  0  0  0  0  0  0  0
    8.2780    2.3631    0.7428 H   0  0  0  0  0  0  0  0  0  0  0  0
    8.8838    1.7636   -0.8285 H   0  0  0  0  0  0  0  0  0  0  0  0
    9.7519    1.3662    0.6746 H   0  0  0  0  0  0  0  0  0  0  0  0
    7.2191   -3.7906    1.5535 H   0  0  0  0  0  0  0  0  0  0  0  0
    5.5454   -3.2054    1.7100 H   0  0  0  0  0  0  0  0  0  0  0  0
    6.1627   -3.7480    0.1212 H   0  0  0  0  0  0  0  0  0  0  0  0
    4.4002   -2.1925   -0.0960 H   0  0  0  0  0  0  0  0  0  0  0  0
   -0.3661   -1.7950   -1.6765 H   0  0  0  0  0  0  0  0  0  0  0  0
   -1.0593   -1.5636   -0.0715 H   0  0  0  0  0  0  0  0  0  0  0  0
    0.5714   -2.2091   -0.2381 H   0  0  0  0  0  0  0  0  0  0  0  0
   -4.9685    2.7597   -0.2367 H   0  0  0  0  0  0  0  0  0  0  0  0
   -4.0740    3.1551    2.6435 H   0  0  0  0  0  0  0  0  0  0  0  0
   -5.1707    1.8869    2.0808 H   0  0  0  0  0  0  0  0  0  0  0  0
   -5.6470    3.5802    1.9696 H   0  0  0  0  0  0  0  0  0  0  0  0
   -2.9354    4.7064    0.9236 H   0  0  0  0  0  0  0  0  0  0  0  0
   -3.4122    4.5913   -0.7799 H   0  0  0  0  0  0  0  0  0  0  0  0
   -4.5748    5.1106    0.4290 H   0  0  0  0  0  0  0  0  0  0  0  0
   -0.9610    3.1147    2.6359 H   0  0  0  0  0  0  0  0  0  0  0  0
  1  2  2  0  0  0  0
  2  3  1  0  0  0  0
  3  4  1  0  0  0  0
  4  5  4  0  0  0  0
  5  6  4  0  0  0  0
  6  7  1  0  0  0  0
  7  8  1  0  0  0  0
  6  9  4  0  0  0  0
 10 11  2  0  0  0  0
  9 12  4  0  0  0  0
  4 13  4  0  0  0  0
 12 13  4  0  0  0  0
  3 14  1  0  0  0  0
 14 15  1  0  0  0  0
 15 16  1  0  0  0  0
 16 17  4  0  0  0  0
 17 18  1  0  0  0  0
 18 19  1  0  0  0  0
 19 20  1  0  0  0  0
 20 21  4  0  0  0  0
 21 22  4  0  0  0  0
 22 23  4  0  0  0  0
 23 24  1  0  0  0  0
 24 25  1  0  0  0  0
 23 26  4  0  0  0  0
 26 27  1  0  0  0  0
 27 28  1  0  0  0  0
 20 29  4  0  0  0  0
 26 29  4  0  0  0  0
 17 30  1  0  0  0  0
  3 31  1  0  0  0  0
 31 32  1  0  0  0  0
 31 33  1  0  0  0  0
  5 34  1  0  0  0  0
  8 35  1  0  0  0  0
  8 36  1  0  0  0  0
  8 37  1  0  0  0  0
  9 38  1  0  0  0  0
 11 39  1  0  0  0  0
 11 40  1  0  0  0  0
 12 41  1  0  0  0  0
 13 42  1  0  0  0  0
 14 43  1  0  0  0  0
 14 44  1  0  0  0  0
 15 45  1  0  0  0  0
 15 46  1  0  0  0  0
  2 47  1  0  0  0  0
 16 48  1  0  0  0  0
 18 49  1  0  0  0  0
 18 50  1  0  0  0  0
 19 51  1  0  0  0  0
 19 52  1  0  0  0  0
 21 53  1  0  0  0  0
 22 54  1  0  0  0  0
 25 55  1  0  0  0  0
 25 56  1  0  0  0  0
 25 57  1  0  0  0  0
 28 58  1  0  0  0  0
 28 59  1  0  0  0  0
 28 60  1  0  0  0  0
 29 61  1  0  0  0  0
 30 62  1  0  0  0  0
 30 63  1  0  0  0  0
 30 64  1  0  0  0  0
 31 65  1  0  0  0  0
 32 66  1  0  0  0  0
 32 67  1  0  0  0  0
 32 68  1  0  0  0  0
 33 69  1  0  0  0  0
 33 70  1  0  0  0  0
 33 71  1  0  0  0  0
  1 72  1  0  0  0  0
M  CHG  1   1   1
M  END
