 xtb: 6.6.1 (8d0f1dd)
          06052420003D

 25 26  0     0  0            999 V2000
    3.7681    0.5857    0.1210 C   0  0  0  0  0  0  0  0  0  0  0  0
    2.6930   -0.1908    0.0392 N   0  0  0  0  0  0  0  0  0  0  0  0
    2.6943   -1.5436   -0.0170 C   0  0  0  0  0  0  0  0  0  0  0  0
    1.4057   -2.0169   -0.0583 N   0  0  0  0  0  0  0  0  0  0  0  0
    0.5719   -0.9686   -0.0350 C   0  0  0  0  0  0  0  0  0  0  0  0
    1.3480    0.2085    0.0084 C   0  0  0  0  0  0  0  0  0  0  0  0
    0.6681    1.4392   -0.0212 C   0  0  0  0  0  0  0  0  0  0  0  0
    1.1872    2.6484   -0.0789 O   0  0  0  0  0  0  0  0  0  0  0  0
   -0.6742    1.4025    0.0018 N   0  0  0  0  0  0  0  0  0  0  0  0
   -3.3902    1.5269    0.0895 C   0  0  0  0  0  0  0  0  0  0  0  0
   -1.3637    0.3035    0.0071 C   0  0  0  0  0  0  0  0  0  0  0  0
   -2.6719    0.2959    0.0547 O   0  0  0  0  0  0  0  0  0  0  0  0
   -0.7909   -0.9559   -0.0445 N   0  0  0  0  0  0  0  0  0  0  0  0
   -1.5559   -2.1848   -0.0975 C   0  0  0  0  0  0  0  0  0  0  0  0
    3.6848    1.6435    0.2502 H   0  0  0  0  0  0  0  0  0  0  0  0
    4.7327    0.1215    0.1450 H   0  0  0  0  0  0  0  0  0  0  0  0
    2.1471    2.6672   -0.1813 H   0  0  0  0  0  0  0  0  0  0  0  0
    3.5670   -2.1576   -0.0147 H   0  0  0  0  0  0  0  0  0  0  0  0
   -2.7218    2.3826    0.0718 H   0  0  0  0  0  0  0  0  0  0  0  0
   -4.0468    1.5450   -0.7783 H   0  0  0  0  0  0  0  0  0  0  0  0
   -3.9833    1.5356    1.0008 H   0  0  0  0  0  0  0  0  0  0  0  0
   -1.3171   -2.8154    0.7602 H   0  0  0  0  0  0  0  0  0  0  0  0
   -1.3391   -2.7238   -1.0216 H   0  0  0  0  0  0  0  0  0  0  0  0
   -2.6133   -1.9373   -0.0709 H   0  0  0  0  0  0  0  0  0  0  0  0
    1.1608   -2.9932   -0.0993 H   0  0  0  0  0  0  0  0  0  0  0  0
  1  2  4  0  0  0  0
  2  3  4  0  0  0  0
  3  4  1  0  0  0  0
  4  5  4  0  0  0  0
  2  6  1  0  0  0  0
  5  6  4  0  0  0  0
  6  7  4  0  0  0  0
  7  8  1  0  0  0  0
  7  9  4  0  0  0  0
  9 11  4  0  0  0  0
 10 12  1  0  0  0  0
 11 12  1  0  0  0  0
  5 13  1  0  0  0  0
 11 13  1  0  0  0  0
 13 14  1  0  0  0  0
  1 15  1  0  0  0  0
  1 16  1  0  0  0  0
  8 17  1  0  0  0  0
  3 18  1  0  0  0  0
 10 19  1  0  0  0  0
 10 20  1  0  0  0  0
 10 21  1  0  0  0  0
 14 22  1  0  0  0  0
 14 23  1  0  0  0  0
 14 24  1  0  0  0  0
  4 25  1  0  0  0  0
M  CHG  1   1   1
M  END
