 xtb: 6.6.1 (8d0f1dd)
          06052419583D

 25 25  0     0  0            999 V2000
    4.8331    0.3515    0.0835 C   0  0  0  0  0  0  0  0  0  0  0  0
    3.9640   -0.5147   -0.1676 N   0  0  0  0  0  0  0  0  0  0  0  0
    3.1461   -1.4855   -0.0024 C   0  0  0  0  0  0  0  0  0  0  0  0
    1.8174   -1.3581   -0.0087 N   0  0  0  0  0  0  0  0  0  0  0  0
    1.1461   -0.1543   -0.0407 C   0  0  0  0  0  0  0  0  0  0  0  0
   -0.1924    0.0256   -0.0295 C   0  0  0  0  0  0  0  0  0  0  0  0
   -0.7568    1.4122   -0.0614 C   0  0  0  0  0  0  0  0  0  0  0  0
   -0.1457    2.4477   -0.0921 O   0  0  0  0  0  0  0  0  0  0  0  0
   -2.1155    1.2382   -0.0378 N   0  0  0  0  0  0  0  0  0  0  0  0
   -3.0859    2.3053   -0.0576 C   0  0  0  0  0  0  0  0  0  0  0  0
   -2.4564   -0.1020    0.0088 C   0  0  0  0  0  0  0  0  0  0  0  0
   -3.5521   -0.5792    0.0472 O   0  0  0  0  0  0  0  0  0  0  0  0
   -1.2563   -0.8273    0.0112 N   0  0  0  0  0  0  0  0  0  0  0  0
   -1.2775   -2.2670    0.0539 C   0  0  0  0  0  0  0  0  0  0  0  0
    5.1193    0.6070    1.1001 H   0  0  0  0  0  0  0  0  0  0  0  0
    5.3108    0.8751   -0.7344 H   0  0  0  0  0  0  0  0  0  0  0  0
    1.7727    0.7225   -0.0798 H   0  0  0  0  0  0  0  0  0  0  0  0
    3.5511   -2.4927    0.0197 H   0  0  0  0  0  0  0  0  0  0  0  0
   -2.5719    3.2332    0.1862 H   0  0  0  0  0  0  0  0  0  0  0  0
   -3.5391    2.3873   -1.0469 H   0  0  0  0  0  0  0  0  0  0  0  0
   -3.8679    2.0963    0.6712 H   0  0  0  0  0  0  0  0  0  0  0  0
   -0.7928   -2.6430    0.9574 H   0  0  0  0  0  0  0  0  0  0  0  0
   -0.8186   -2.6954   -0.8397 H   0  0  0  0  0  0  0  0  0  0  0  0
   -2.3278   -2.5626    0.0778 H   0  0  0  0  0  0  0  0  0  0  0  0
    1.2567   -2.2019    0.0126 H   0  0  0  0  0  0  0  0  0  0  0  0
  1  2  2  0  0  0  0
  2  3  2  0  0  0  0
  3  4  4  0  0  0  0
  4  5  1  0  0  0  0
  5  6  2  0  0  0  0
  6  7  1  0  0  0  0
  7  8  2  0  0  0  0
  7  9  1  0  0  0  0
  9 10  1  0  0  0  0
  9 11  1  0  0  0  0
 11 12  2  0  0  0  0
  6 13  1  0  0  0  0
 11 13  1  0  0  0  0
 13 14  1  0  0  0  0
  1 15  1  0  0  0  0
  1 16  1  0  0  0  0
  5 17  1  0  0  0  0
  3 18  1  0  0  0  0
 10 19  1  0  0  0  0
 10 20  1  0  0  0  0
 10 21  1  0  0  0  0
 14 22  1  0  0  0  0
 14 23  1  0  0  0  0
 14 24  1  0  0  0  0
  4 25  1  0  0  0  0
M  CHG  1   1   1
M  END
