          47
 
N             -2.32354602        1.93030827        2.66344605
C             -2.31278139        2.37338450        1.49159819
C             -3.40681172        2.10289306        0.49425129
C             -3.95541215        0.68437500        0.51858791
C             -4.94174024        0.34422277       -0.41210220
C             -5.47607120       -0.93215351       -0.47552768
O             -6.42081878       -1.33800828       -1.35048818
C             -6.97876711       -0.40485865       -2.24489300
C             -5.01497216       -1.92819824        0.42843494
O             -5.58021967       -3.14389223        0.29584827
C             -5.19690360       -4.17528097        1.17521689
C             -4.04064620       -1.58112097        1.35245723
C             -3.51796288       -0.29713389        1.39386625
C             -2.87973872        2.42180023       -0.92806878
C             -2.12147093        1.26260126       -1.58349146
C             -0.97144257        0.76949564       -0.75890447
N             -0.59900277       -0.40961459       -0.54866388
C             -1.24536234       -1.57426101       -1.07034066
C             -4.57922374        3.08044763        0.86177909
C             -5.27234235        2.64744231        2.14948463
C             -4.11934217        4.53266081        0.98092597
H             -5.30104609        1.09123450       -1.10047139
H             -7.45604100        0.42429324       -1.71379828
H             -7.73201638       -0.95335402       -2.80704165
H             -6.22738039       -0.01243384       -2.93810405
H             -5.41976475       -3.91816195        2.21489631
H             -5.78578856       -5.04235356        0.88287547
H             -4.13231324       -4.40944487        1.07765799
H             -3.67436423       -2.31110120        2.05546545
H             -2.77111635       -0.06521184        2.13346571
H             -3.71467681        2.68912599       -1.57758121
H             -2.22136174        3.29104245       -0.88027928
H             -2.79995316        0.43750888       -1.80260286
H             -1.70948283        1.61410165       -2.53545501
H             -1.54046478        3.06341980        1.12684207
H             -0.35276942        1.53818742       -0.30484280
H             -1.00395858       -1.69570547       -2.12884993
H             -2.33318251       -1.54342565       -0.96204257
H             -0.85754997       -2.43561657       -0.52686137
H             -5.30629553        3.02445831        0.04521270
H             -4.55280618        2.56847822        2.96067023
H             -5.75333336        1.68049132        2.02907435
H             -6.02882704        3.37791473        2.42422939
H             -3.46044731        4.66325746        1.83580233
H             -3.60598078        4.86970671        0.08416478
H             -4.98625647        5.17273510        1.12762228
H             -1.57121044        2.22010901        3.28061255
