 xtb: 6.6.1 (8d0f1dd)
          06052419583D

 25 25  0     0  0            999 V2000
    3.1433    1.1820   -0.1690 C   0  0  0  0  0  0  0  0  0  0  0  0
    2.1521    0.1425   -0.0701 N   0  0  0  0  0  0  0  0  0  0  0  0
    2.3839   -1.1247    0.2390 C   0  0  0  0  0  0  0  0  0  0  0  0
    1.2186   -1.7914    0.2589 N   0  0  0  0  0  0  0  0  0  0  0  0
    0.2135   -0.9146   -0.0542 C   0  0  0  0  0  0  0  0  0  0  0  0
    0.8122    0.3066   -0.2789 C   0  0  0  0  0  0  0  0  0  0  0  0
    0.1499    1.6023   -0.6661 C   0  0  0  0  0  0  0  0  0  0  0  0
    0.4390    2.6574   -0.1493 O   0  0  0  0  0  0  0  0  0  0  0  0
   -1.5659    1.0343    0.1803 N   0  0  0  0  0  0  0  0  0  0  0  0
   -2.2157    1.9813    0.7012 C   0  0  0  0  0  0  0  0  0  0  0  0
   -2.1036   -0.2753    0.0755 C   0  0  0  0  0  0  0  0  0  0  0  0
   -3.2710   -0.5318    0.1030 O   0  0  0  0  0  0  0  0  0  0  0  0
   -1.1186   -1.2371   -0.0640 N   0  0  0  0  0  0  0  0  0  0  0  0
   -1.5195   -2.6328   -0.1316 C   0  0  0  0  0  0  0  0  0  0  0  0
    3.9550    0.9840    0.5277 H   0  0  0  0  0  0  0  0  0  0  0  0
    3.5457    1.2293   -1.1827 H   0  0  0  0  0  0  0  0  0  0  0  0
    2.6777    2.1393    0.0667 H   0  0  0  0  0  0  0  0  0  0  0  0
    3.3456   -1.5571    0.4350 H   0  0  0  0  0  0  0  0  0  0  0  0
   -1.7265    2.9491    0.7365 H   0  0  0  0  0  0  0  0  0  0  0  0
   -0.3334    1.5274   -1.6547 H   0  0  0  0  0  0  0  0  0  0  0  0
   -3.2110    1.8607    1.1184 H   0  0  0  0  0  0  0  0  0  0  0  0
   -1.3177   -3.1475    0.8097 H   0  0  0  0  0  0  0  0  0  0  0  0
   -1.0084   -3.1317   -0.9543 H   0  0  0  0  0  0  0  0  0  0  0  0
   -2.5932   -2.6594   -0.3121 H   0  0  0  0  0  0  0  0  0  0  0  0
    1.1085   -2.7745    0.4661 H   0  0  0  0  0  0  0  0  0  0  0  0
  1  2  1  0  0  0  0
  2  3  4  0  0  0  0
  3  4  4  0  0  0  0
  4  5  1  0  0  0  0
  2  6  4  0  0  0  0
  5  6  4  0  0  0  0
  6  7  1  0  0  0  0
  7  8  2  0  0  0  0
  9 10  2  0  0  0  0
  9 11  1  0  0  0  0
 11 12  2  0  0  0  0
  5 13  1  0  0  0  0
 11 13  1  0  0  0  0
 13 14  1  0  0  0  0
  1 15  1  0  0  0  0
  1 16  1  0  0  0  0
  1 17  1  0  0  0  0
  3 18  1  0  0  0  0
 10 19  1  0  0  0  0
  7 20  1  0  0  0  0
 10 21  1  0  0  0  0
 14 22  1  0  0  0  0
 14 23  1  0  0  0  0
 14 24  1  0  0  0  0
  4 25  1  0  0  0  0
M  CHG  1   1   1
M  END
