 xtb: 6.6.1 (8d0f1dd)
          04062411143D

 72 72  0     0  0            999 V2000
   -1.8826    2.8205    2.1830 N   0  0  0  0  0  0  0  0  0  0  0  0
   -1.8793    2.0318    1.2160 C   0  0  0  0  0  0  0  0  0  0  0  0
   -3.0438    1.8136    0.2889 C   0  0  0  0  0  0  0  0  0  0  0  0
   -3.4802    0.3578    0.3657 C   0  0  0  0  0  0  0  0  0  0  0  0
   -4.3901   -0.1493   -0.5636 C   0  0  0  0  0  0  0  0  0  0  0  0
   -4.8506   -1.4543   -0.4871 C   0  0  0  0  0  0  0  0  0  0  0  0
   -5.7391   -2.0181   -1.3280 O   0  0  0  0  0  0  0  0  0  0  0  0
   -6.3409   -1.2341   -2.3310 C   0  0  0  0  0  0  0  0  0  0  0  0
   -4.3777   -2.3051    0.5512 C   0  0  0  0  0  0  0  0  0  0  0  0
   -4.8773   -3.5533    0.5487 O   0  0  0  0  0  0  0  0  0  0  0  0
   -4.5203   -4.4394    1.5853 C   0  0  0  0  0  0  0  0  0  0  0  0
   -3.4714   -1.7941    1.4683 C   0  0  0  0  0  0  0  0  0  0  0  0
   -3.0354   -0.4803    1.3785 C   0  0  0  0  0  0  0  0  0  0  0  0
   -2.5240    2.1477   -1.1338 C   0  0  0  0  0  0  0  0  0  0  0  0
   -1.5213    1.1277   -1.6927 C   0  0  0  0  0  0  0  0  0  0  0  0
   -0.1687    1.2500   -1.1037 C   0  0  0  0  0  0  0  0  0  0  0  0
    0.6662    0.2589   -0.8931 N   0  0  0  0  0  0  0  0  0  0  0  0
    2.0187    0.5062   -0.4567 C   0  0  0  0  0  0  0  0  0  0  0  0
    3.0202    0.4095   -1.6171 C   0  0  0  0  0  0  0  0  0  0  0  0
    4.4222    0.3422   -1.0807 C   0  0  0  0  0  0  0  0  0  0  0  0
    5.3776    1.3162   -1.3789 C   0  0  0  0  0  0  0  0  0  0  0  0
    6.6673    1.2329   -0.8795 C   0  0  0  0  0  0  0  0  0  0  0  0
    7.0598    0.1790   -0.0645 C   0  0  0  0  0  0  0  0  0  0  0  0
    8.2734   -0.0107    0.4713 O   0  0  0  0  0  0  0  0  0  0  0  0
    9.2969    0.9244    0.2094 C   0  0  0  0  0  0  0  0  0  0  0  0
    6.0871   -0.8332    0.2579 C   0  0  0  0  0  0  0  0  0  0  0  0
    6.4899   -1.8304    1.0519 O   0  0  0  0  0  0  0  0  0  0  0  0
    5.5778   -2.8919    1.2455 C   0  0  0  0  0  0  0  0  0  0  0  0
    4.8325   -0.6814   -0.2687 C   0  0  0  0  0  0  0  0  0  0  0  0
    0.3066   -1.1225   -1.0992 C   0  0  0  0  0  0  0  0  0  0  0  0
   -4.2783    2.7033    0.6235 C   0  0  0  0  0  0  0  0  0  0  0  0
   -4.8448    2.3742    2.0025 C   0  0  0  0  0  0  0  0  0  0  0  0
   -3.9906    4.1991    0.5290 C   0  0  0  0  0  0  0  0  0  0  0  0
   -4.7591    0.4900   -1.3485 H   0  0  0  0  0  0  0  0  0  0  0  0
   -6.8739   -0.3786   -1.9055 H   0  0  0  0  0  0  0  0  0  0  0  0
   -7.0529   -1.8911   -2.8265 H   0  0  0  0  0  0  0  0  0  0  0  0
   -5.6060   -0.8828   -3.0625 H   0  0  0  0  0  0  0  0  0  0  0  0
   -4.8139   -4.0478    2.5636 H   0  0  0  0  0  0  0  0  0  0  0  0
   -5.0673   -5.3585    1.3850 H   0  0  0  0  0  0  0  0  0  0  0  0
   -3.4463   -4.6486    1.5821 H   0  0  0  0  0  0  0  0  0  0  0  0
   -3.1056   -2.4097    2.2736 H   0  0  0  0  0  0  0  0  0  0  0  0
   -2.3582   -0.1110    2.1325 H   0  0  0  0  0  0  0  0  0  0  0  0
   -3.3757    2.1987   -1.8112 H   0  0  0  0  0  0  0  0  0  0  0  0
   -2.0602    3.1343   -1.1155 H   0  0  0  0  0  0  0  0  0  0  0  0
   -1.9212    0.1195   -1.5831 H   0  0  0  0  0  0  0  0  0  0  0  0
   -1.4219    1.3214   -2.7690 H   0  0  0  0  0  0  0  0  0  0  0  0
   -0.9959    1.4393    0.9110 H   0  0  0  0  0  0  0  0  0  0  0  0
    0.2146    2.2494   -0.9486 H   0  0  0  0  0  0  0  0  0  0  0  0
    2.2883   -0.2771    0.2777 H   0  0  0  0  0  0  0  0  0  0  0  0
    2.0869    1.4877    0.0147 H   0  0  0  0  0  0  0  0  0  0  0  0
    2.9112    1.2659   -2.2846 H   0  0  0  0  0  0  0  0  0  0  0  0
    2.8192   -0.5025   -2.1826 H   0  0  0  0  0  0  0  0  0  0  0  0
    5.1041    2.1458   -2.0139 H   0  0  0  0  0  0  0  0  0  0  0  0
    7.3744    2.0048   -1.1380 H   0  0  0  0  0  0  0  0  0  0  0  0
    9.0295    1.9198    0.5765 H   0  0  0  0  0  0  0  0  0  0  0  0
    9.5249    0.9762   -0.8589 H   0  0  0  0  0  0  0  0  0  0  0  0
   10.1691    0.5616    0.7496 H   0  0  0  0  0  0  0  0  0  0  0  0
    5.9292   -3.4485    2.1121 H   0  0  0  0  0  0  0  0  0  0  0  0
    4.5618   -2.5149    1.4141 H   0  0  0  0  0  0  0  0  0  0  0  0
    5.5648   -3.5453    0.3677 H   0  0  0  0  0  0  0  0  0  0  0  0
    2.4902   -1.9656    0.8054 H   0  0  0  0  0  0  0  0  0  0  0  0
    0.3144   -1.3793   -2.1599 H   0  0  0  0  0  0  0  0  0  0  0  0
   -0.6861   -1.3265   -0.6963 H   0  0  0  0  0  0  0  0  0  0  0  0
    1.0307   -1.7529   -0.5738 H   0  0  0  0  0  0  0  0  0  0  0  0
   -5.0447    2.4580   -0.1211 H   0  0  0  0  0  0  0  0  0  0  0  0
   -4.1254    2.6339    2.7728 H   0  0  0  0  0  0  0  0  0  0  0  0
   -5.0882    1.3179    2.0872 H   0  0  0  0  0  0  0  0  0  0  0  0
   -5.7522    2.9483    2.1702 H   0  0  0  0  0  0  0  0  0  0  0  0
   -3.1855    4.4717    1.2043 H   0  0  0  0  0  0  0  0  0  0  0  0
   -3.7325    4.5016   -0.4824 H   0  0  0  0  0  0  0  0  0  0  0  0
   -4.8800    4.7506    0.8224 H   0  0  0  0  0  0  0  0  0  0  0  0
   -1.0340    2.9116    2.7322 H   0  0  0  0  0  0  0  0  0  0  0  0
  1  2  2  0  0  0  0
  2  3  1  0  0  0  0
  3  4  1  0  0  0  0
  4  5  4  0  0  0  0
  5  6  4  0  0  0  0
  6  7  1  0  0  0  0
  7  8  1  0  0  0  0
  6  9  4  0  0  0  0
  9 10  1  0  0  0  0
 10 11  1  0  0  0  0
  9 12  4  0  0  0  0
  4 13  4  0  0  0  0
 12 13  4  0  0  0  0
  3 14  1  0  0  0  0
 14 15  1  0  0  0  0
 15 16  1  0  0  0  0
 16 17  4  0  0  0  0
 17 18  1  0  0  0  0
 18 19  1  0  0  0  0
 19 20  1  0  0  0  0
 20 21  4  0  0  0  0
 21 22  4  0  0  0  0
 22 23  4  0  0  0  0
 23 24  1  0  0  0  0
 24 25  1  0  0  0  0
 23 26  1  0  0  0  0
 26 27  1  0  0  0  0
 27 28  1  0  0  0  0
 20 29  4  0  0  0  0
 26 29  4  0  0  0  0
 17 30  1  0  0  0  0
  3 31  1  0  0  0  0
 31 32  1  0  0  0  0
 31 33  1  0  0  0  0
  5 34  1  0  0  0  0
  8 35  1  0  0  0  0
  8 36  1  0  0  0  0
  8 37  1  0  0  0  0
 11 38  1  0  0  0  0
 11 39  1  0  0  0  0
 11 40  1  0  0  0  0
 12 41  1  0  0  0  0
 13 42  1  0  0  0  0
 14 43  1  0  0  0  0
 14 44  1  0  0  0  0
 15 45  1  0  0  0  0
 15 46  1  0  0  0  0
  2 47  1  0  0  0  0
 16 48  1  0  0  0  0
 18 49  1  0  0  0  0
 18 50  1  0  0  0  0
 19 51  1  0  0  0  0
 19 52  1  0  0  0  0
 21 53  1  0  0  0  0
 22 54  1  0  0  0  0
 25 55  1  0  0  0  0
 25 56  1  0  0  0  0
 25 57  1  0  0  0  0
 28 58  1  0  0  0  0
 28 59  1  0  0  0  0
 28 60  1  0  0  0  0
 30 62  1  0  0  0  0
 30 63  1  0  0  0  0
 30 64  1  0  0  0  0
 31 65  1  0  0  0  0
 32 66  1  0  0  0  0
 32 67  1  0  0  0  0
 32 68  1  0  0  0  0
 33 69  1  0  0  0  0
 33 70  1  0  0  0  0
 33 71  1  0  0  0  0
  1 72  1  0  0  0  0
M  CHG  1   1   1
M  END
