          21
 
N              2.15107096       -0.71126375       -0.04198586
C              2.06812062       -2.00877305       -0.03439844
N              0.76815660       -2.44202017       -0.02401705
C             -0.00555123       -1.32636663       -0.02298978
C              0.87989842       -0.24008172       -0.03609571
C              0.38651434        1.11493875       -0.03860976
O              1.05430451        2.12672863       -0.06106591
N             -1.01330239        1.15924341       -0.01031222
C             -1.64582460        2.46744827       -0.00205393
C             -1.89437643        0.09094881        0.01773256
O             -3.08774207        0.25446988        0.05675293
N             -1.34626814       -1.19918727       -0.00399902
C             -2.23569923       -2.34086102        0.01636740
H              2.90839153       -2.67378912       -0.03559188
H             -0.86763178        3.22425139       -0.08472564
H             -2.34475874        2.54690914       -0.83623442
H             -2.20794922        2.60569162        0.92353593
H             -2.04385330       -2.95846093        0.89547653
H             -2.11172449       -2.93725854       -0.88919650
H             -3.25848745       -1.96565218        0.05931834
H              0.46111830       -3.40306951       -0.02235837
