 xtb: 6.6.1 (8d0f1dd)
          04062411123D

 72 72  0     0  0            999 V2000
   -2.2166    2.4750    2.0326 N   0  0  0  0  0  0  0  0  0  0  0  0
   -1.9760    2.5941    0.6921 C   0  0  0  0  0  0  0  0  0  0  0  0
   -2.3529    1.7280   -0.2735 C   0  0  0  0  0  0  0  0  0  0  0  0
   -3.0851    0.4932    0.0174 C   0  0  0  0  0  0  0  0  0  0  0  0
   -4.1532    0.0830   -0.7902 C   0  0  0  0  0  0  0  0  0  0  0  0
   -4.8687   -1.0678   -0.5146 C   0  0  0  0  0  0  0  0  0  0  0  0
   -5.9248   -1.5187   -1.2280 O   0  0  0  0  0  0  0  0  0  0  0  0
   -6.4094   -0.7467   -2.2997 C   0  0  0  0  0  0  0  0  0  0  0  0
   -4.5026   -1.8723    0.5979 C   0  0  0  0  0  0  0  0  0  0  0  0
   -5.2562   -2.9747    0.7930 O   0  0  0  0  0  0  0  0  0  0  0  0
   -4.9896   -3.7951    1.9060 C   0  0  0  0  0  0  0  0  0  0  0  0
   -3.4272   -1.4784    1.3807 C   0  0  0  0  0  0  0  0  0  0  0  0
   -2.7305   -0.3138    1.0975 C   0  0  0  0  0  0  0  0  0  0  0  0
   -2.0229    2.0283   -1.7096 C   0  0  0  0  0  0  0  0  0  0  0  0
   -1.1068    0.9429   -2.3257 C   0  0  0  0  0  0  0  0  0  0  0  0
    0.2185    0.9430   -1.6785 C   0  0  0  0  0  0  0  0  0  0  0  0
    0.7552   -0.0577   -0.9982 N   0  0  0  0  0  0  0  0  0  0  0  0
    2.1075    0.0456   -0.5045 C   0  0  0  0  0  0  0  0  0  0  0  0
    3.1210   -0.5910   -1.4769 C   0  0  0  0  0  0  0  0  0  0  0  0
    4.5216   -0.3469   -0.9895 C   0  0  0  0  0  0  0  0  0  0  0  0
    5.1621    0.8490   -1.2696 C   0  0  0  0  0  0  0  0  0  0  0  0
    6.4397    1.0993   -0.7935 C   0  0  0  0  0  0  0  0  0  0  0  0
    7.1029    0.1556   -0.0233 C   0  0  0  0  0  0  0  0  0  0  0  0
    8.3395    0.2920    0.4945 O   0  0  0  0  0  0  0  0  0  0  0  0
    9.0560    1.4807    0.2533 C   0  0  0  0  0  0  0  0  0  0  0  0
    6.4566   -1.0772    0.2645 C   0  0  0  0  0  0  0  0  0  0  0  0
    7.1771   -1.9411    1.0096 O   0  0  0  0  0  0  0  0  0  0  0  0
    6.6371   -3.2050    1.3121 C   0  0  0  0  0  0  0  0  0  0  0  0
    5.1773   -1.3031   -0.2179 C   0  0  0  0  0  0  0  0  0  0  0  0
    0.1058   -1.3412   -0.8814 C   0  0  0  0  0  0  0  0  0  0  0  0
   -5.4523    2.8774    1.1748 C   0  0  0  0  0  0  0  0  0  0  0  0
   -5.4864    1.9418    2.1085 C   0  0  0  0  0  0  0  0  0  0  0  0
   -5.2883    4.3342    1.4429 C   0  0  0  0  0  0  0  0  0  0  0  0
   -4.4488    0.6995   -1.6224 H   0  0  0  0  0  0  0  0  0  0  0  0
   -6.7259    0.2474   -1.9682 H   0  0  0  0  0  0  0  0  0  0  0  0
   -7.2722   -1.2881   -2.6834 H   0  0  0  0  0  0  0  0  0  0  0  0
   -5.6639   -0.6473   -3.0963 H   0  0  0  0  0  0  0  0  0  0  0  0
   -5.0745   -3.2388    2.8439 H   0  0  0  0  0  0  0  0  0  0  0  0
   -5.7452   -4.5772    1.8811 H   0  0  0  0  0  0  0  0  0  0  0  0
   -3.9963   -4.2504    1.8401 H   0  0  0  0  0  0  0  0  0  0  0  0
   -3.1225   -2.0765    2.2243 H   0  0  0  0  0  0  0  0  0  0  0  0
   -1.8841   -0.0462    1.7115 H   0  0  0  0  0  0  0  0  0  0  0  0
   -2.9338    2.0731   -2.3081 H   0  0  0  0  0  0  0  0  0  0  0  0
   -1.5326    2.9995   -1.7817 H   0  0  0  0  0  0  0  0  0  0  0  0
   -1.5995   -0.0245   -2.2532 H   0  0  0  0  0  0  0  0  0  0  0  0
   -0.9762    1.1870   -3.3851 H   0  0  0  0  0  0  0  0  0  0  0  0
   -1.4115    3.4757    0.4174 H   0  0  0  0  0  0  0  0  0  0  0  0
    0.7881    1.8586   -1.7161 H   0  0  0  0  0  0  0  0  0  0  0  0
    2.1732   -0.4487    0.4676 H   0  0  0  0  0  0  0  0  0  0  0  0
    2.3620    1.0984   -0.3694 H   0  0  0  0  0  0  0  0  0  0  0  0
    2.9871   -0.1394   -2.4618 H   0  0  0  0  0  0  0  0  0  0  0  0
    2.9304   -1.6615   -1.5587 H   0  0  0  0  0  0  0  0  0  0  0  0
    4.6711    1.5957   -1.8752 H   0  0  0  0  0  0  0  0  0  0  0  0
    6.9142    2.0365   -1.0337 H   0  0  0  0  0  0  0  0  0  0  0  0
    8.5349    2.3525    0.6608 H   0  0  0  0  0  0  0  0  0  0  0  0
    9.2376    1.6296   -0.8154 H   0  0  0  0  0  0  0  0  0  0  0  0
   10.0075    1.3570    0.7668 H   0  0  0  0  0  0  0  0  0  0  0  0
    7.4014   -3.7171    1.8934 H   0  0  0  0  0  0  0  0  0  0  0  0
    5.7248   -3.1197    1.9112 H   0  0  0  0  0  0  0  0  0  0  0  0
    6.4275   -3.7795    0.4045 H   0  0  0  0  0  0  0  0  0  0  0  0
    4.6795   -2.2368   -0.0077 H   0  0  0  0  0  0  0  0  0  0  0  0
    0.0317   -1.8371   -1.8518 H   0  0  0  0  0  0  0  0  0  0  0  0
   -0.8978   -1.2234   -0.4678 H   0  0  0  0  0  0  0  0  0  0  0  0
    0.6823   -1.9751   -0.2125 H   0  0  0  0  0  0  0  0  0  0  0  0
   -5.5450    2.6076    0.1311 H   0  0  0  0  0  0  0  0  0  0  0  0
   -2.9677    1.8480    2.2896 H   0  0  0  0  0  0  0  0  0  0  0  0
   -5.6174    0.8987    1.8715 H   0  0  0  0  0  0  0  0  0  0  0  0
   -5.4123    2.1941    3.1559 H   0  0  0  0  0  0  0  0  0  0  0  0
   -5.1483    4.5268    2.5039 H   0  0  0  0  0  0  0  0  0  0  0  0
   -4.4358    4.7284    0.8896 H   0  0  0  0  0  0  0  0  0  0  0  0
   -6.1723    4.8768    1.1079 H   0  0  0  0  0  0  0  0  0  0  0  0
   -2.1916    3.3283    2.5652 H   0  0  0  0  0  0  0  0  0  0  0  0
  1  2  4  0  0  0  0
  2  3  2  0  0  0  0
  3  4  1  0  0  0  0
  4  5  4  0  0  0  0
  5  6  4  0  0  0  0
  6  7  1  0  0  0  0
  7  8  1  0  0  0  0
  6  9  4  0  0  0  0
  9 10  1  0  0  0  0
 10 11  1  0  0  0  0
  9 12  4  0  0  0  0
  4 13  4  0  0  0  0
 12 13  4  0  0  0  0
  3 14  1  0  0  0  0
 14 15  1  0  0  0  0
 15 16  1  0  0  0  0
 16 17  4  0  0  0  0
 17 18  1  0  0  0  0
 18 19  1  0  0  0  0
 19 20  1  0  0  0  0
 20 21  4  0  0  0  0
 21 22  4  0  0  0  0
 22 23  4  0  0  0  0
 23 24  1  0  0  0  0
 24 25  1  0  0  0  0
 23 26  4  0  0  0  0
 26 27  1  0  0  0  0
 27 28  1  0  0  0  0
 20 29  4  0  0  0  0
 26 29  4  0  0  0  0
 17 30  1  0  0  0  0
 31 32  2  0  0  0  0
 31 33  1  0  0  0  0
  5 34  1  0  0  0  0
  8 35  1  0  0  0  0
  8 36  1  0  0  0  0
  8 37  1  0  0  0  0
 11 38  1  0  0  0  0
 11 39  1  0  0  0  0
 11 40  1  0  0  0  0
 12 41  1  0  0  0  0
 13 42  1  0  0  0  0
 14 43  1  0  0  0  0
 14 44  1  0  0  0  0
 15 45  1  0  0  0  0
 15 46  1  0  0  0  0
  2 47  1  0  0  0  0
 16 48  1  0  0  0  0
 18 49  1  0  0  0  0
 18 50  1  0  0  0  0
 19 51  1  0  0  0  0
 19 52  1  0  0  0  0
 21 53  1  0  0  0  0
 22 54  1  0  0  0  0
 25 55  1  0  0  0  0
 25 56  1  0  0  0  0
 25 57  1  0  0  0  0
 28 58  1  0  0  0  0
 28 59  1  0  0  0  0
 28 60  1  0  0  0  0
 29 61  1  0  0  0  0
 30 62  1  0  0  0  0
 30 63  1  0  0  0  0
 30 64  1  0  0  0  0
 31 65  1  0  0  0  0
  1 66  1  0  0  0  0
 32 67  1  0  0  0  0
 32 68  1  0  0  0  0
 33 69  1  0  0  0  0
 33 70  1  0  0  0  0
 33 71  1  0  0  0  0
  1 72  1  0  0  0  0
M  CHG  1   1   1
M  END
