          24
 
C              3.15769525        1.07235861       -0.02770842
N              2.28788753        0.06657863       -0.00581939
C              2.55232143       -1.26222959       -0.00360459
N              1.39060724       -1.96096523       -0.00627138
C              0.35652962       -1.07069369       -0.00563276
C              0.90281623        0.19821227       -0.00779208
C              0.07685887        1.38982631       -0.00292492
O              0.48413907        2.52571531        0.00759877
N             -1.27588548        1.05681514       -0.00888734
C             -2.23962915        2.15114835       -0.00992611
C             -1.84695527       -0.20077058       -0.01172053
O             -3.03140636       -0.37597314       -0.01672076
N             -0.96153995       -1.30767006       -0.00744974
C             -1.51206032       -2.64787296       -0.00209953
H              4.21108213        0.86433278       -0.01563465
H              2.77376315        2.07778176       -0.06109929
H              3.53105813       -1.69630665       -0.01166436
H             -1.68998280        3.08782633        0.02680148
H             -2.84836760        2.10432724       -0.91232398
H             -2.89747166        2.06041788        0.85356798
H             -1.21001635       -3.18274494        0.89874425
H             -1.19596611       -3.19526448       -0.89030557
H             -2.59763672       -2.55253496       -0.01126121
H              1.32020677       -2.96848561       -0.00103441
