 xtb: 6.6.1 (8d0f1dd)
          04062411153D

 72 73  0     0  0            999 V2000
   -1.9115    2.8686    2.2723 N   0  0  0  0  0  0  0  0  0  0  0  0
   -1.8392    2.1571    1.2479 C   0  0  0  0  0  0  0  0  0  0  0  0
   -2.9637    1.9368    0.2749 C   0  0  0  0  0  0  0  0  0  0  0  0
   -3.4259    0.4891    0.3510 C   0  0  0  0  0  0  0  0  0  0  0  0
   -4.3357    0.0028   -0.5903 C   0  0  0  0  0  0  0  0  0  0  0  0
   -4.8030   -1.2994   -0.5403 C   0  0  0  0  0  0  0  0  0  0  0  0
   -5.6917   -1.8424   -1.4002 O   0  0  0  0  0  0  0  0  0  0  0  0
   -6.2982   -1.0224   -2.3708 C   0  0  0  0  0  0  0  0  0  0  0  0
   -4.3384   -2.1706    0.4805 C   0  0  0  0  0  0  0  0  0  0  0  0
   -4.8405   -3.4231    0.4484 O   0  0  0  0  0  0  0  0  0  0  0  0
   -4.4987   -4.3221    1.4768 C   0  0  0  0  0  0  0  0  0  0  0  0
   -3.4350   -1.6831    1.4103 C   0  0  0  0  0  0  0  0  0  0  0  0
   -2.9883   -0.3686    1.3472 C   0  0  0  0  0  0  0  0  0  0  0  0
   -2.3729    2.2276   -1.1295 C   0  0  0  0  0  0  0  0  0  0  0  0
   -1.4176    1.1410   -1.6539 C   0  0  0  0  0  0  0  0  0  0  0  0
   -0.1009    1.1253   -0.9770 C   0  0  0  0  0  0  0  0  0  0  0  0
    0.5523    0.0303   -0.5889 N   0  0  0  0  0  0  0  0  0  0  0  0
    1.9437    0.1076   -0.2128 C   0  0  0  0  0  0  0  0  0  0  0  0
    2.8644   -0.2811   -1.3851 C   0  0  0  0  0  0  0  0  0  0  0  0
    4.3065   -0.0988   -0.9956 C   0  0  0  0  0  0  0  0  0  0  0  0
    4.9319    1.0742   -1.2249 C   0  0  0  0  0  0  0  0  0  0  0  0
    6.3457    1.3248   -0.8326 C   0  0  0  0  0  0  0  0  0  0  0  0
    6.9373    0.2135   -0.0225 C   0  0  0  0  0  0  0  0  0  0  0  0
    8.1049    0.3565    0.5841 O   0  0  0  0  0  0  0  0  0  0  0  0
    8.8894    1.3925    0.4943 C   0  0  0  0  0  0  0  0  0  0  0  0
    6.2652   -1.0241    0.1315 C   0  0  0  0  0  0  0  0  0  0  0  0
    6.9739   -1.9806    0.7708 O   0  0  0  0  0  0  0  0  0  0  0  0
    6.3946   -3.2523    0.9584 C   0  0  0  0  0  0  0  0  0  0  0  0
    4.9786   -1.1730   -0.3488 C   0  0  0  0  0  0  0  0  0  0  0  0
   -0.0481   -1.2800   -0.6514 C   0  0  0  0  0  0  0  0  0  0  0  0
   -4.1932    2.8564    0.5347 C   0  0  0  0  0  0  0  0  0  0  0  0
   -4.8607    2.5313    1.8690 C   0  0  0  0  0  0  0  0  0  0  0  0
   -3.8550    4.3435    0.4760 C   0  0  0  0  0  0  0  0  0  0  0  0
   -4.6954    0.6591   -1.3652 H   0  0  0  0  0  0  0  0  0  0  0  0
   -6.8251   -0.1803   -1.9119 H   0  0  0  0  0  0  0  0  0  0  0  0
   -7.0162   -1.6597   -2.8833 H   0  0  0  0  0  0  0  0  0  0  0  0
   -5.5683   -0.6475   -3.0959 H   0  0  0  0  0  0  0  0  0  0  0  0
   -4.7921   -3.9386    2.4586 H   0  0  0  0  0  0  0  0  0  0  0  0
   -5.0545   -5.2333    1.2648 H   0  0  0  0  0  0  0  0  0  0  0  0
   -3.4266   -4.5443    1.4767 H   0  0  0  0  0  0  0  0  0  0  0  0
   -3.0785   -2.3160    2.2067 H   0  0  0  0  0  0  0  0  0  0  0  0
   -2.3107   -0.0167    2.1097 H   0  0  0  0  0  0  0  0  0  0  0  0
   -3.1928    2.3271   -1.8401 H   0  0  0  0  0  0  0  0  0  0  0  0
   -1.8453    3.1817   -1.0994 H   0  0  0  0  0  0  0  0  0  0  0  0
   -1.9068    0.1700   -1.6018 H   0  0  0  0  0  0  0  0  0  0  0  0
   -1.2366    1.3665   -2.7135 H   0  0  0  0  0  0  0  0  0  0  0  0
   -0.9142    1.6436    0.9180 H   0  0  0  0  0  0  0  0  0  0  0  0
    0.4526    2.0519   -0.9405 H   0  0  0  0  0  0  0  0  0  0  0  0
    2.1262   -0.5567    0.6358 H   0  0  0  0  0  0  0  0  0  0  0  0
    2.1777    1.1284    0.0972 H   0  0  0  0  0  0  0  0  0  0  0  0
    2.6284    0.3578   -2.2375 H   0  0  0  0  0  0  0  0  0  0  0  0
    2.6785   -1.3177   -1.6672 H   0  0  0  0  0  0  0  0  0  0  0  0
    4.4273    1.8859   -1.7261 H   0  0  0  0  0  0  0  0  0  0  0  0
    6.9490    1.4937   -1.7402 H   0  0  0  0  0  0  0  0  0  0  0  0
    6.3955    2.2677   -0.2601 H   0  0  0  0  0  0  0  0  0  0  0  0
    8.6897    2.2235   -0.1697 H   0  0  0  0  0  0  0  0  0  0  0  0
    9.7526    1.3824    1.1447 H   0  0  0  0  0  0  0  0  0  0  0  0
    7.1495   -3.8448    1.4714 H   0  0  0  0  0  0  0  0  0  0  0  0
    5.4959   -3.1949    1.5799 H   0  0  0  0  0  0  0  0  0  0  0  0
    6.1513   -3.7268    0.0030 H   0  0  0  0  0  0  0  0  0  0  0  0
    4.4599   -2.1100   -0.2393 H   0  0  0  0  0  0  0  0  0  0  0  0
   -0.1944   -1.6019   -1.6851 H   0  0  0  0  0  0  0  0  0  0  0  0
   -1.0156   -1.2796   -0.1435 H   0  0  0  0  0  0  0  0  0  0  0  0
    0.6028   -1.9952   -0.1547 H   0  0  0  0  0  0  0  0  0  0  0  0
   -4.9143    2.6431   -0.2626 H   0  0  0  0  0  0  0  0  0  0  0  0
   -4.1812    2.7474    2.6868 H   0  0  0  0  0  0  0  0  0  0  0  0
   -5.1514    1.4847    1.9180 H   0  0  0  0  0  0  0  0  0  0  0  0
   -5.7528    3.1405    1.9882 H   0  0  0  0  0  0  0  0  0  0  0  0
   -3.1194    4.5933    1.2341 H   0  0  0  0  0  0  0  0  0  0  0  0
   -3.4785    4.6362   -0.5007 H   0  0  0  0  0  0  0  0  0  0  0  0
   -4.7545    4.9211    0.6722 H   0  0  0  0  0  0  0  0  0  0  0  0
   -1.0755    2.9654    2.8403 H   0  0  0  0  0  0  0  0  0  0  0  0
  1  2  2  0  0  0  0
  2  3  1  0  0  0  0
  3  4  1  0  0  0  0
  4  5  4  0  0  0  0
  5  6  4  0  0  0  0
  6  7  1  0  0  0  0
  7  8  1  0  0  0  0
  6  9  4  0  0  0  0
  9 10  1  0  0  0  0
 10 11  1  0  0  0  0
  9 12  4  0  0  0  0
  4 13  4  0  0  0  0
 12 13  4  0  0  0  0
  3 14  1  0  0  0  0
 14 15  1  0  0  0  0
 15 16  1  0  0  0  0
 16 17  4  0  0  0  0
 17 18  1  0  0  0  0
 18 19  1  0  0  0  0
 19 20  1  0  0  0  0
 20 21  2  0  0  0  0
 21 22  1  0  0  0  0
 22 23  1  0  0  0  0
 23 24  1  0  0  0  0
 24 25  4  0  0  0  0
 23 26  4  0  0  0  0
 26 27  1  0  0  0  0
 27 28  1  0  0  0  0
 20 29  4  0  0  0  0
 26 29  4  0  0  0  0
 17 30  1  0  0  0  0
  3 31  1  0  0  0  0
 31 32  1  0  0  0  0
 31 33  1  0  0  0  0
  5 34  1  0  0  0  0
  8 35  1  0  0  0  0
  8 36  1  0  0  0  0
  8 37  1  0  0  0  0
 11 38  1  0  0  0  0
 11 39  1  0  0  0  0
 11 40  1  0  0  0  0
 12 41  1  0  0  0  0
 13 42  1  0  0  0  0
 14 43  1  0  0  0  0
 14 44  1  0  0  0  0
 15 45  1  0  0  0  0
 15 46  1  0  0  0  0
  2 47  1  0  0  0  0
 16 48  1  0  0  0  0
 18 49  1  0  0  0  0
 18 50  1  0  0  0  0
 19 51  1  0  0  0  0
 19 52  1  0  0  0  0
 21 53  1  0  0  0  0
 22 54  1  0  0  0  0
 22 55  1  0  0  0  0
 25 56  1  0  0  0  0
 25 57  1  0  0  0  0
 28 58  1  0  0  0  0
 28 59  1  0  0  0  0
 28 60  1  0  0  0  0
 29 61  1  0  0  0  0
 30 62  1  0  0  0  0
 30 63  1  0  0  0  0
 30 64  1  0  0  0  0
 31 65  1  0  0  0  0
 32 66  1  0  0  0  0
 32 67  1  0  0  0  0
 32 68  1  0  0  0  0
 33 69  1  0  0  0  0
 33 70  1  0  0  0  0
 33 71  1  0  0  0  0
  1 72  1  0  0  0  0
M  CHG  1   1   1
M  END
