 xtb: 6.6.1 (8d0f1dd)
          06052420003D

 25 26  0     0  0            999 V2000
    3.1343    1.9450    0.0137 C   0  0  0  0  0  0  0  0  0  0  0  0
    2.6502    0.5920    0.1099 N   0  0  0  0  0  0  0  0  0  0  0  0
    3.3752   -0.5102    0.2580 C   0  0  0  0  0  0  0  0  0  0  0  0
    2.5765   -1.5931    0.3002 N   0  0  0  0  0  0  0  0  0  0  0  0
    1.2812   -1.1719    0.1735 C   0  0  0  0  0  0  0  0  0  0  0  0
    1.3327    0.2131    0.0529 C   0  0  0  0  0  0  0  0  0  0  0  0
    0.1178    0.9648   -0.0787 C   0  0  0  0  0  0  0  0  0  0  0  0
    0.0192    2.1653   -0.1736 O   0  0  0  0  0  0  0  0  0  0  0  0
   -1.0276    0.1180   -0.0822 N   0  0  0  0  0  0  0  0  0  0  0  0
   -2.2850    0.8502   -0.1906 C   0  0  0  0  0  0  0  0  0  0  0  0
   -0.9659   -1.2491    0.0301 C   0  0  0  0  0  0  0  0  0  0  0  0
   -1.9731   -2.0738    0.0321 O   0  0  0  0  0  0  0  0  0  0  0  0
    0.1736   -1.9005    0.1601 N   0  0  0  0  0  0  0  0  0  0  0  0
   -3.3732   -1.8787   -0.1278 C   0  0  0  0  0  0  0  0  0  0  0  0
    3.7557    2.1889    0.8751 H   0  0  0  0  0  0  0  0  0  0  0  0
    3.7260    2.0733   -0.8935 H   0  0  0  0  0  0  0  0  0  0  0  0
    2.2786    2.6184   -0.0205 H   0  0  0  0  0  0  0  0  0  0  0  0
    4.4457   -0.5321    0.3334 H   0  0  0  0  0  0  0  0  0  0  0  0
   -2.0269    1.8976   -0.3488 H   0  0  0  0  0  0  0  0  0  0  0  0
   -2.8675    0.5069   -1.0394 H   0  0  0  0  0  0  0  0  0  0  0  0
   -2.8524    0.7781    0.7347 H   0  0  0  0  0  0  0  0  0  0  0  0
   -3.7944   -2.8657    0.0685 H   0  0  0  0  0  0  0  0  0  0  0  0
   -3.6229   -1.5927   -1.1501 H   0  0  0  0  0  0  0  0  0  0  0  0
   -3.7917   -1.1730    0.5862 H   0  0  0  0  0  0  0  0  0  0  0  0
    2.8745   -2.5527    0.4080 H   0  0  0  0  0  0  0  0  0  0  0  0
  1  2  1  0  0  0  0
  2  3  4  0  0  0  0
  3  4  4  0  0  0  0
  4  5  1  0  0  0  0
  2  6  1  0  0  0  0
  5  6  4  0  0  0  0
  6  7  1  0  0  0  0
  7  8  2  0  0  0  0
  7  9  1  0  0  0  0
  9 10  1  0  0  0  0
  9 11  1  0  0  0  0
 11 12  4  0  0  0  0
  5 13  4  0  0  0  0
 11 13  4  0  0  0  0
 12 14  1  0  0  0  0
  1 15  1  0  0  0  0
  1 16  1  0  0  0  0
  1 17  1  0  0  0  0
  3 18  1  0  0  0  0
 10 19  1  0  0  0  0
 10 20  1  0  0  0  0
 10 21  1  0  0  0  0
 14 22  1  0  0  0  0
 14 23  1  0  0  0  0
 14 24  1  0  0  0  0
  4 25  1  0  0  0  0
M  CHG  1   1   1
M  END
