 xtb: 6.6.1 (8d0f1dd)
          06052419593D

 25 26  0     0  0            999 V2000
    3.2891    1.0168    0.2071 C   0  0  0  0  0  0  0  0  0  0  0  0
    2.4071    0.0197    0.1369 N   0  0  0  0  0  0  0  0  0  0  0  0
    2.6313   -1.3015    0.3667 C   0  0  0  0  0  0  0  0  0  0  0  0
    1.4614   -1.9845    0.2745 N   0  0  0  0  0  0  0  0  0  0  0  0
    0.4723   -1.0881   -0.0286 C   0  0  0  0  0  0  0  0  0  0  0  0
    1.0618    0.1493   -0.1370 C   0  0  0  0  0  0  0  0  0  0  0  0
    0.2824    1.4128   -0.4128 C   0  0  0  0  0  0  0  0  0  0  0  0
    0.7093    2.4629    0.2031 O   0  0  0  0  0  0  0  0  0  0  0  0
   -1.1472    1.0595   -0.0847 N   0  0  0  0  0  0  0  0  0  0  0  0
   -2.0135    2.2004    0.0757 C   0  0  0  0  0  0  0  0  0  0  0  0
   -1.7222   -0.1725   -0.1014 C   0  0  0  0  0  0  0  0  0  0  0  0
   -2.9173   -0.3412   -0.0478 O   0  0  0  0  0  0  0  0  0  0  0  0
   -0.8613   -1.2970   -0.1376 N   0  0  0  0  0  0  0  0  0  0  0  0
   -1.4428   -2.6198   -0.1494 C   0  0  0  0  0  0  0  0  0  0  0  0
    4.3154    0.8030    0.4337 H   0  0  0  0  0  0  0  0  0  0  0  0
    0.2615    1.5640   -1.5309 H   0  0  0  0  0  0  0  0  0  0  0  0
    2.9206    2.0215    0.0880 H   0  0  0  0  0  0  0  0  0  0  0  0
    3.5847   -1.7370    0.5838 H   0  0  0  0  0  0  0  0  0  0  0  0
   -1.4178    3.0045    0.5147 H   0  0  0  0  0  0  0  0  0  0  0  0
   -2.4060    2.5348   -0.8891 H   0  0  0  0  0  0  0  0  0  0  0  0
   -2.8499    1.9378    0.7222 H   0  0  0  0  0  0  0  0  0  0  0  0
   -1.2956   -3.1250    0.8079 H   0  0  0  0  0  0  0  0  0  0  0  0
   -1.0126   -3.2170   -0.9545 H   0  0  0  0  0  0  0  0  0  0  0  0
   -2.5144   -2.5054   -0.3167 H   0  0  0  0  0  0  0  0  0  0  0  0
    1.3640   -2.9799    0.4072 H   0  0  0  0  0  0  0  0  0  0  0  0
  1  2  4  0  0  0  0
  2  3  4  0  0  0  0
  3  4  4  0  0  0  0
  4  5  1  0  0  0  0
  2  6  1  0  0  0  0
  5  6  4  0  0  0  0
  6  7  1  0  0  0  0
  7  8  4  0  0  0  0
  7  9  1  0  0  0  0
  9 10  1  0  0  0  0
  9 11  1  0  0  0  0
 11 12  2  0  0  0  0
  5 13  1  0  0  0  0
 11 13  1  0  0  0  0
 13 14  1  0  0  0  0
  1 15  1  0  0  0  0
  7 16  1  0  0  0  0
  1 17  1  0  0  0  0
  3 18  1  0  0  0  0
 10 19  1  0  0  0  0
 10 20  1  0  0  0  0
 10 21  1  0  0  0  0
 14 22  1  0  0  0  0
 14 23  1  0  0  0  0
 14 24  1  0  0  0  0
  4 25  1  0  0  0  0
M  CHG  1   1   1
M  END
