          47
 
N             -1.47818418        2.56250200        2.25099867
C             -1.70943907        1.79824837        1.28788964
C             -2.95640045        1.86115149        0.44501255
C             -3.62591123        0.49872835        0.44039900
C             -4.61867691        0.20744990       -0.49631029
C             -5.24618897       -1.02829484       -0.52591130
O             -6.20226050       -1.39654982       -1.40219518
C             -6.66736408       -0.46636651       -2.35152512
C             -4.87827805       -2.02363064        0.42155394
O             -5.52479364       -3.19952220        0.31075224
C             -5.23858041       -4.22804023        1.23037616
C             -3.91160084       -1.71604511        1.36758721
C             -3.29883229       -0.47168807        1.37749408
C             -2.47577440        2.25247115       -0.98110600
C             -1.86785145        1.11971152       -1.81617174
C             -0.54805521        0.61967800       -1.30891738
N             -0.17063492       -0.56233856       -1.11152566
C             -0.99385415       -1.72082584       -1.29669783
C             -3.99623561        2.90558372        0.94975747
C             -4.48917528        2.57132929        2.35567508
C             -3.47698780        4.34046125        0.91401803
H             -4.90741734        0.96098337       -1.21086008
H             -7.10752457        0.41235168       -1.87011050
H             -7.43555430       -0.98850266       -2.91859897
H             -5.86914768       -0.15104766       -3.03162694
H             -5.46104231       -3.92154863        2.25663249
H             -5.88654305       -5.05688036        0.95317787
H             -4.19335609       -4.54595337        1.16234187
H             -3.62693158       -2.44259002        2.11094480
H             -2.56680506       -0.26427884        2.14204136
H             -3.32809711        2.65346410       -1.53203173
H             -1.74233532        3.05578984       -0.88495083
H             -2.57303516        0.29466895       -1.91373774
H             -1.67697915        1.51788732       -2.81869181
H             -1.00217838        1.03373965        0.93495048
H              0.20343353        1.38583822       -1.13499920
H             -1.01779836       -1.98987798       -2.35524274
H             -2.02100147       -1.58567391       -0.94526813
H             -0.53114816       -2.53967086       -0.74558773
H             -4.85419576        2.83640432        0.26949364
H             -3.67363861        2.65865439        3.06743920
H             -4.89402500        1.56291560        2.40197742
H             -5.27298860        3.26752666        2.64276749
H             -2.58530783        4.43040501        1.52632772
H             -3.25223894        4.66638682       -0.09773585
H             -4.23673419        5.00491394        1.31704016
H             -0.59234441        2.45907332        2.73622314
