 xtb: 6.6.1 (8d0f1dd)
          04232419383D

 72 73  0     0  0            999 V2000
   -1.4731    2.7440    2.2206 N   0  0  0  0  0  0  0  0  0  0  0  0
   -1.5566    2.1649    1.1327 C   0  0  0  0  0  0  0  0  0  0  0  0
   -2.7455    2.0562    0.2383 C   0  0  0  0  0  0  0  0  0  0  0  0
   -3.3138    0.6433    0.3233 C   0  0  0  0  0  0  0  0  0  0  0  0
   -4.3023    0.2449   -0.5803 C   0  0  0  0  0  0  0  0  0  0  0  0
   -4.8524   -1.0229   -0.5336 C   0  0  0  0  0  0  0  0  0  0  0  0
   -5.8142   -1.4861   -1.3616 O   0  0  0  0  0  0  0  0  0  0  0  0
   -6.3966   -0.6083   -2.2957 C   0  0  0  0  0  0  0  0  0  0  0  0
   -4.3997   -1.9465    0.4440 C   0  0  0  0  0  0  0  0  0  0  0  0
   -4.9875   -3.1615    0.4109 O   0  0  0  0  0  0  0  0  0  0  0  0
   -4.6636   -4.1009    1.4091 C   0  0  0  0  0  0  0  0  0  0  0  0
   -3.4207   -1.5456    1.3344 C   0  0  0  0  0  0  0  0  0  0  0  0
   -2.8830   -0.2632    1.2740 C   0  0  0  0  0  0  0  0  0  0  0  0
   -2.1930    2.3047   -1.1874 C   0  0  0  0  0  0  0  0  0  0  0  0
   -1.2665    1.1724   -1.6525 C   0  0  0  0  0  0  0  0  0  0  0  0
    0.0108    1.0975   -0.8935 C   0  0  0  0  0  0  0  0  0  0  0  0
    0.6178   -0.0203   -0.5771 N   0  0  0  0  0  0  0  0  0  0  0  0
    2.0015   -0.0238   -0.1561 C   0  0  0  0  0  0  0  0  0  0  0  0
    2.9255   -0.5387   -1.2770 C   0  0  0  0  0  0  0  0  0  0  0  0
    4.3576   -0.4305   -0.8308 C   0  0  0  0  0  0  0  0  0  0  0  0
    5.0735    0.7321   -1.0398 C   0  0  0  0  0  0  0  0  0  0  0  0
    6.3863    0.8422   -0.6034 C   0  0  0  0  0  0  0  0  0  0  0  0
    7.0005   -0.2082    0.0572 C   0  0  0  0  0  0  0  0  0  0  0  0
    8.2670   -0.2101    0.5241 O   0  0  0  0  0  0  0  0  0  0  0  0
    9.0691    0.9294    0.3186 C   0  0  0  0  0  0  0  0  0  0  0  0
    6.2704   -1.4044    0.2803 C   0  0  0  0  0  0  0  0  0  0  0  0
    6.9483   -2.3801    0.9275 O   0  0  0  0  0  0  0  0  0  0  0  0
    6.3154   -3.6158    1.1522 C   0  0  0  0  0  0  0  0  0  0  0  0
    4.9630   -1.4935   -0.1606 C   0  0  0  0  0  0  0  0  0  0  0  0
   -0.0551   -1.2991   -0.6209 C   0  0  0  0  0  0  0  0  0  0  0  0
   -3.8676    3.0799    0.5850 C   0  0  0  0  0  0  0  0  0  0  0  0
   -4.4929    2.7738    1.9431 C   0  0  0  0  0  0  0  0  0  0  0  0
   -3.3917    4.5292    0.5480 C   0  0  0  0  0  0  0  0  0  0  0  0
   -4.6603    0.9451   -1.3164 H   0  0  0  0  0  0  0  0  0  0  0  0
   -6.8504    0.2580   -1.8047 H   0  0  0  0  0  0  0  0  0  0  0  0
   -7.1729   -1.1860   -2.7932 H   0  0  0  0  0  0  0  0  0  0  0  0
   -5.6684   -0.2695   -3.0404 H   0  0  0  0  0  0  0  0  0  0  0  0
   -4.8842   -3.7159    2.4091 H   0  0  0  0  0  0  0  0  0  0  0  0
   -5.2922   -4.9664    1.2097 H   0  0  0  0  0  0  0  0  0  0  0  0
   -3.6114   -4.3992    1.3553 H   0  0  0  0  0  0  0  0  0  0  0  0
   -3.0708   -2.2187    2.1000 H   0  0  0  0  0  0  0  0  0  0  0  0
   -2.1456    0.0207    2.0100 H   0  0  0  0  0  0  0  0  0  0  0  0
   -3.0219    2.3824   -1.8881 H   0  0  0  0  0  0  0  0  0  0  0  0
   -1.6520    3.2515   -1.2056 H   0  0  0  0  0  0  0  0  0  0  0  0
   -1.8110    0.2301   -1.6212 H   0  0  0  0  0  0  0  0  0  0  0  0
   -0.9934    1.3749   -2.6944 H   0  0  0  0  0  0  0  0  0  0  0  0
   -0.6763    1.6518    0.6179 H   0  0  0  0  0  0  0  0  0  0  0  0
    0.6353    1.9847   -0.9231 H   0  0  0  0  0  0  0  0  0  0  0  0
    2.1113   -0.6595    0.7253 H   0  0  0  0  0  0  0  0  0  0  0  0
    2.3068    0.9898    0.1108 H   0  0  0  0  0  0  0  0  0  0  0  0
    2.7669    0.0675   -2.1708 H   0  0  0  0  0  0  0  0  0  0  0  0
    2.6795   -1.5746   -1.5117 H   0  0  0  0  0  0  0  0  0  0  0  0
    4.6217    1.5630   -1.5612 H   0  0  0  0  0  0  0  0  0  0  0  0
    6.9236    1.7572   -0.7912 H   0  0  0  0  0  0  0  0  0  0  0  0
    8.6516    1.8100    0.8170 H   0  0  0  0  0  0  0  0  0  0  0  0
    9.2014    1.1404   -0.7470 H   0  0  0  0  0  0  0  0  0  0  0  0
   10.0343    0.6900    0.7606 H   0  0  0  0  0  0  0  0  0  0  0  0
    7.0557   -4.2362    1.6535 H   0  0  0  0  0  0  0  0  0  0  0  0
    5.4385   -3.5081    1.7997 H   0  0  0  0  0  0  0  0  0  0  0  0
    6.0206   -4.0942    0.2125 H   0  0  0  0  0  0  0  0  0  0  0  0
    4.4010   -2.4013   -0.0049 H   0  0  0  0  0  0  0  0  0  0  0  0
   -0.2207   -1.6178   -1.6512 H   0  0  0  0  0  0  0  0  0  0  0  0
   -1.0197   -1.2410   -0.1094 H   0  0  0  0  0  0  0  0  0  0  0  0
    0.5590   -2.0449   -0.1233 H   0  0  0  0  0  0  0  0  0  0  0  0
   -4.6399    2.9550   -0.1810 H   0  0  0  0  0  0  0  0  0  0  0  0
   -3.7610    2.9031    2.7338 H   0  0  0  0  0  0  0  0  0  0  0  0
   -4.8746    1.7570    1.9788 H   0  0  0  0  0  0  0  0  0  0  0  0
   -5.3193    3.4558    2.1233 H   0  0  0  0  0  0  0  0  0  0  0  0
   -2.6003    4.6923    1.2737 H   0  0  0  0  0  0  0  0  0  0  0  0
   -3.0399    4.8190   -0.4387 H   0  0  0  0  0  0  0  0  0  0  0  0
   -4.2219    5.1807    0.8062 H   0  0  0  0  0  0  0  0  0  0  0  0
   -0.5983    2.7774    2.7296 H   0  0  0  0  0  0  0  0  0  0  0  0
  1  2  2  0  0  0  0
  2  3  1  0  0  0  0
  3  4  1  0  0  0  0
  4  5  4  0  0  0  0
  5  6  4  0  0  0  0
  6  7  1  0  0  0  0
  7  8  1  0  0  0  0
  6  9  4  0  0  0  0
  9 10  1  0  0  0  0
 10 11  1  0  0  0  0
  9 12  4  0  0  0  0
  4 13  4  0  0  0  0
 12 13  4  0  0  0  0
  3 14  1  0  0  0  0
 14 15  1  0  0  0  0
 15 16  1  0  0  0  0
 16 17  4  0  0  0  0
 17 18  1  0  0  0  0
 18 19  1  0  0  0  0
 19 20  1  0  0  0  0
 20 21  4  0  0  0  0
 21 22  4  0  0  0  0
 22 23  4  0  0  0  0
 23 24  1  0  0  0  0
 24 25  1  0  0  0  0
 23 26  4  0  0  0  0
 26 27  1  0  0  0  0
 27 28  1  0  0  0  0
 20 29  4  0  0  0  0
 26 29  4  0  0  0  0
 17 30  1  0  0  0  0
  3 31  1  0  0  0  0
 31 32  1  0  0  0  0
 31 33  1  0  0  0  0
  5 34  1  0  0  0  0
  8 35  1  0  0  0  0
  8 36  1  0  0  0  0
  8 37  1  0  0  0  0
 11 38  1  0  0  0  0
 11 39  1  0  0  0  0
 11 40  1  0  0  0  0
 12 41  1  0  0  0  0
 13 42  1  0  0  0  0
 14 43  1  0  0  0  0
 14 44  1  0  0  0  0
 15 45  1  0  0  0  0
 15 46  1  0  0  0  0
  2 47  1  0  0  0  0
 16 48  1  0  0  0  0
 18 49  1  0  0  0  0
 18 50  1  0  0  0  0
 19 51  1  0  0  0  0
 19 52  1  0  0  0  0
 21 53  1  0  0  0  0
 22 54  1  0  0  0  0
 25 55  1  0  0  0  0
 25 56  1  0  0  0  0
 25 57  1  0  0  0  0
 28 58  1  0  0  0  0
 28 59  1  0  0  0  0
 28 60  1  0  0  0  0
 29 61  1  0  0  0  0
 30 62  1  0  0  0  0
 30 63  1  0  0  0  0
 30 64  1  0  0  0  0
 31 65  1  0  0  0  0
 32 66  1  0  0  0  0
 32 67  1  0  0  0  0
 32 68  1  0  0  0  0
 33 69  1  0  0  0  0
 33 70  1  0  0  0  0
 33 71  1  0  0  0  0
  1 72  1  0  0  0  0
M  END
