 xtb: 6.6.1 (8d0f1dd)
          04062411173D

 72 74  0     0  0            999 V2000
   -1.4877    2.7819    2.2584 N   0  0  0  0  0  0  0  0  0  0  0  0
   -1.4818    2.0906    1.2186 C   0  0  0  0  0  0  0  0  0  0  0  0
   -2.6774    1.8663    0.3346 C   0  0  0  0  0  0  0  0  0  0  0  0
   -3.1244    0.4151    0.4481 C   0  0  0  0  0  0  0  0  0  0  0  0
   -4.0555   -0.0968   -0.4574 C   0  0  0  0  0  0  0  0  0  0  0  0
   -4.5242   -1.3961   -0.3576 C   0  0  0  0  0  0  0  0  0  0  0  0
   -5.4237   -1.9653   -1.1863 O   0  0  0  0  0  0  0  0  0  0  0  0
   -6.0028   -1.1937   -2.2118 C   0  0  0  0  0  0  0  0  0  0  0  0
   -4.0503   -2.2325    0.6892 C   0  0  0  0  0  0  0  0  0  0  0  0
   -4.5680   -3.4763    0.7159 O   0  0  0  0  0  0  0  0  0  0  0  0
   -4.2266   -4.3393    1.7757 C   0  0  0  0  0  0  0  0  0  0  0  0
   -3.1226   -1.7191    1.5818 C   0  0  0  0  0  0  0  0  0  0  0  0
   -2.6668   -0.4132    1.4615 C   0  0  0  0  0  0  0  0  0  0  0  0
   -2.2097    2.1614   -1.1131 C   0  0  0  0  0  0  0  0  0  0  0  0
   -1.2040    1.1374   -1.6602 C   0  0  0  0  0  0  0  0  0  0  0  0
    0.1788    1.3811   -1.1913 C   0  0  0  0  0  0  0  0  0  0  0  0
    1.0933    0.4461   -0.9715 N   0  0  0  0  0  0  0  0  0  0  0  0
    2.4893    0.7977   -0.8232 C   0  0  0  0  0  0  0  0  0  0  0  0
    3.2436    0.4702   -2.0958 C   0  0  0  0  0  0  0  0  0  0  0  0
    4.1272   -0.7540   -2.2182 C   0  0  0  0  0  0  0  0  0  0  0  0
    4.7434    0.6412   -2.1813 C   0  0  0  0  0  0  0  0  0  0  0  0
    5.5198    0.9941   -0.9969 C   0  0  0  0  0  0  0  0  0  0  0  0
    5.5690    0.1935    0.0927 C   0  0  0  0  0  0  0  0  0  0  0  0
    6.2134    0.4599    1.2469 O   0  0  0  0  0  0  0  0  0  0  0  0
    6.9628    1.6483    1.3454 C   0  0  0  0  0  0  0  0  0  0  0  0
    4.9847   -1.1499    0.0565 C   0  0  0  0  0  0  0  0  0  0  0  0
    5.2135   -1.8550    1.1849 O   0  0  0  0  0  0  0  0  0  0  0  0
    4.9004   -3.2271    1.2048 C   0  0  0  0  0  0  0  0  0  0  0  0
    4.3833   -1.6132   -1.0657 C   0  0  0  0  0  0  0  0  0  0  0  0
    0.7754   -0.9606   -1.0011 C   0  0  0  0  0  0  0  0  0  0  0  0
   -3.8916    2.7742    0.6942 C   0  0  0  0  0  0  0  0  0  0  0  0
   -4.4695    2.4228    2.0632 C   0  0  0  0  0  0  0  0  0  0  0  0
   -3.5656    4.2644    0.6448 C   0  0  0  0  0  0  0  0  0  0  0  0
   -4.4346    0.5355   -1.2426 H   0  0  0  0  0  0  0  0  0  0  0  0
   -6.5328   -0.3246   -1.8105 H   0  0  0  0  0  0  0  0  0  0  0  0
   -6.7147   -1.8520   -2.7056 H   0  0  0  0  0  0  0  0  0  0  0  0
   -5.2533   -0.8635   -2.9387 H   0  0  0  0  0  0  0  0  0  0  0  0
   -4.5089   -3.9147    2.7436 H   0  0  0  0  0  0  0  0  0  0  0  0
   -4.7933   -5.2520    1.6026 H   0  0  0  0  0  0  0  0  0  0  0  0
   -3.1571   -4.5721    1.7764 H   0  0  0  0  0  0  0  0  0  0  0  0
   -2.7550   -2.3262    2.3930 H   0  0  0  0  0  0  0  0  0  0  0  0
   -1.9669   -0.0408    2.1932 H   0  0  0  0  0  0  0  0  0  0  0  0
   -3.0821    2.1777   -1.7646 H   0  0  0  0  0  0  0  0  0  0  0  0
   -1.7603    3.1542   -1.1459 H   0  0  0  0  0  0  0  0  0  0  0  0
   -1.5406    0.1271   -1.4272 H   0  0  0  0  0  0  0  0  0  0  0  0
   -1.1972    1.2349   -2.7544 H   0  0  0  0  0  0  0  0  0  0  0  0
   -0.5752    1.5966    0.8148 H   0  0  0  0  0  0  0  0  0  0  0  0
    0.5273    2.4035   -1.1827 H   0  0  0  0  0  0  0  0  0  0  0  0
    2.9152    0.2443    0.0185 H   0  0  0  0  0  0  0  0  0  0  0  0
    2.5666    1.8664   -0.6060 H   0  0  0  0  0  0  0  0  0  0  0  0
    2.6969    0.7457   -2.9893 H   0  0  0  0  0  0  0  0  0  0  0  0
    4.0811   -1.2673   -3.1657 H   0  0  0  0  0  0  0  0  0  0  0  0
    5.1107    1.0685   -3.1056 H   0  0  0  0  0  0  0  0  0  0  0  0
    6.0857    1.9097   -1.0427 H   0  0  0  0  0  0  0  0  0  0  0  0
    6.3328    2.5321    1.2030 H   0  0  0  0  0  0  0  0  0  0  0  0
    7.7801    1.6642    0.6184 H   0  0  0  0  0  0  0  0  0  0  0  0
    7.3745    1.6540    2.3525 H   0  0  0  0  0  0  0  0  0  0  0  0
    5.2138   -3.5859    2.1829 H   0  0  0  0  0  0  0  0  0  0  0  0
    3.8247   -3.3953    1.0834 H   0  0  0  0  0  0  0  0  0  0  0  0
    5.4427   -3.7719    0.4268 H   0  0  0  0  0  0  0  0  0  0  0  0
    4.1059   -2.6502   -1.1627 H   0  0  0  0  0  0  0  0  0  0  0  0
    0.5293   -1.2899   -2.0128 H   0  0  0  0  0  0  0  0  0  0  0  0
   -0.0741   -1.1729   -0.3487 H   0  0  0  0  0  0  0  0  0  0  0  0
    1.6374   -1.5249   -0.6546 H   0  0  0  0  0  0  0  0  0  0  0  0
   -4.6615    2.5699   -0.0589 H   0  0  0  0  0  0  0  0  0  0  0  0
   -3.7309    2.6064    2.8368 H   0  0  0  0  0  0  0  0  0  0  0  0
   -4.7760    1.3806    2.1065 H   0  0  0  0  0  0  0  0  0  0  0  0
   -5.3396    3.0433    2.2605 H   0  0  0  0  0  0  0  0  0  0  0  0
   -2.7969    4.5059    1.3724 H   0  0  0  0  0  0  0  0  0  0  0  0
   -3.2379    4.5787   -0.3425 H   0  0  0  0  0  0  0  0  0  0  0  0
   -4.4585    4.8320    0.8933 H   0  0  0  0  0  0  0  0  0  0  0  0
   -0.6162    2.8835    2.7688 H   0  0  0  0  0  0  0  0  0  0  0  0
  1  2  2  0  0  0  0
  2  3  1  0  0  0  0
  3  4  1  0  0  0  0
  4  5  4  0  0  0  0
  5  6  4  0  0  0  0
  6  7  1  0  0  0  0
  7  8  1  0  0  0  0
  6  9  4  0  0  0  0
  9 10  1  0  0  0  0
 10 11  1  0  0  0  0
  9 12  4  0  0  0  0
  4 13  4  0  0  0  0
 12 13  4  0  0  0  0
  3 14  1  0  0  0  0
 14 15  1  0  0  0  0
 15 16  1  0  0  0  0
 16 17  4  0  0  0  0
 17 18  1  0  0  0  0
 18 19  1  0  0  0  0
 19 20  1  0  0  0  0
 19 21  1  0  0  0  0
 20 21  1  0  0  0  0
 21 22  1  0  0  0  0
 22 23  2  0  0  0  0
 23 24  1  0  0  0  0
 24 25  1  0  0  0  0
 23 26  1  0  0  0  0
 26 27  1  0  0  0  0
 27 28  1  0  0  0  0
 20 29  1  0  0  0  0
 26 29  2  0  0  0  0
 17 30  1  0  0  0  0
  3 31  1  0  0  0  0
 31 32  1  0  0  0  0
 31 33  1  0  0  0  0
  5 34  1  0  0  0  0
  8 35  1  0  0  0  0
  8 36  1  0  0  0  0
  8 37  1  0  0  0  0
 11 38  1  0  0  0  0
 11 39  1  0  0  0  0
 11 40  1  0  0  0  0
 12 41  1  0  0  0  0
 13 42  1  0  0  0  0
 14 43  1  0  0  0  0
 14 44  1  0  0  0  0
 15 45  1  0  0  0  0
 15 46  1  0  0  0  0
  2 47  1  0  0  0  0
 16 48  1  0  0  0  0
 18 49  1  0  0  0  0
 18 50  1  0  0  0  0
 19 51  1  0  0  0  0
 20 52  1  0  0  0  0
 21 53  1  0  0  0  0
 22 54  1  0  0  0  0
 25 55  1  0  0  0  0
 25 56  1  0  0  0  0
 25 57  1  0  0  0  0
 28 58  1  0  0  0  0
 28 59  1  0  0  0  0
 28 60  1  0  0  0  0
 29 61  1  0  0  0  0
 30 62  1  0  0  0  0
 30 63  1  0  0  0  0
 30 64  1  0  0  0  0
 31 65  1  0  0  0  0
 32 66  1  0  0  0  0
 32 67  1  0  0  0  0
 32 68  1  0  0  0  0
 33 69  1  0  0  0  0
 33 70  1  0  0  0  0
 33 71  1  0  0  0  0
  1 72  1  0  0  0  0
M  CHG  1   1   1
M  END
