 xtb: 6.6.1 (8d0f1dd)
          04062411123D

 72 72  0     0  0            999 V2000
   -1.9353    2.9167    2.2331 N   0  0  0  0  0  0  0  0  0  0  0  0
   -1.8692    2.1554    1.2454 C   0  0  0  0  0  0  0  0  0  0  0  0
   -2.9857    1.9300    0.2620 C   0  0  0  0  0  0  0  0  0  0  0  0
   -3.4278    0.4767    0.3177 C   0  0  0  0  0  0  0  0  0  0  0  0
   -4.2567   -0.0408   -0.6721 C   0  0  0  0  0  0  0  0  0  0  0  0
   -4.6892   -1.3636   -0.6308 C   0  0  0  0  0  0  0  0  0  0  0  0
   -5.4843   -1.9498   -1.5579 O   0  0  0  0  0  0  0  0  0  0  0  0
   -6.1846   -1.3052   -2.4561 C   0  0  0  0  0  0  0  0  0  0  0  0
   -4.2805   -2.2130    0.4331 C   0  0  0  0  0  0  0  0  0  0  0  0
   -4.7448   -3.4746    0.3812 O   0  0  0  0  0  0  0  0  0  0  0  0
   -4.4785   -4.3505    1.4540 C   0  0  0  0  0  0  0  0  0  0  0  0
   -3.4694   -1.6808    1.4238 C   0  0  0  0  0  0  0  0  0  0  0  0
   -3.0540   -0.3569    1.3656 C   0  0  0  0  0  0  0  0  0  0  0  0
   -2.3832    2.2630   -1.1285 C   0  0  0  0  0  0  0  0  0  0  0  0
   -1.4165    1.2013   -1.6831 C   0  0  0  0  0  0  0  0  0  0  0  0
   -0.1110    1.1555   -0.9870 C   0  0  0  0  0  0  0  0  0  0  0  0
    0.5296    0.0478   -0.6263 N   0  0  0  0  0  0  0  0  0  0  0  0
    1.9085    0.1023   -0.2014 C   0  0  0  0  0  0  0  0  0  0  0  0
    2.8664   -0.3345   -1.3271 C   0  0  0  0  0  0  0  0  0  0  0  0
    4.2930   -0.1407   -0.8957 C   0  0  0  0  0  0  0  0  0  0  0  0
    4.9396    1.0631   -1.1236 C   0  0  0  0  0  0  0  0  0  0  0  0
    6.2487    1.2554   -0.7108 C   0  0  0  0  0  0  0  0  0  0  0  0
    6.9375    0.2457   -0.0541 C   0  0  0  0  0  0  0  0  0  0  0  0
    8.2067    0.3194    0.3867 O   0  0  0  0  0  0  0  0  0  0  0  0
    8.9399    1.5041    0.1753 C   0  0  0  0  0  0  0  0  0  0  0  0
    6.2802   -0.9923    0.1896 C   0  0  0  0  0  0  0  0  0  0  0  0
    7.0220   -1.9178    0.8297 O   0  0  0  0  0  0  0  0  0  0  0  0
    6.4707   -3.1871    1.0862 C   0  0  0  0  0  0  0  0  0  0  0  0
    4.9707   -1.1607   -0.2319 C   0  0  0  0  0  0  0  0  0  0  0  0
   -0.0707   -1.2585   -0.7491 C   0  0  0  0  0  0  0  0  0  0  0  0
   -4.2366    2.8211    0.5251 C   0  0  0  0  0  0  0  0  0  0  0  0
   -4.8811    2.4957    1.8705 C   0  0  0  0  0  0  0  0  0  0  0  0
   -3.9375    4.3154    0.4452 C   0  0  0  0  0  0  0  0  0  0  0  0
   -4.5660    0.5850   -1.4936 H   0  0  0  0  0  0  0  0  0  0  0  0
   -6.2549   -0.2332   -2.4971 H   0  0  0  0  0  0  0  0  0  0  0  0
   -8.8444   -0.2381   -2.4904 H   0  0  0  0  0  0  0  0  0  0  0  0
   -6.7366   -1.9263   -3.1371 H   0  0  0  0  0  0  0  0  0  0  0  0
   -4.8655   -3.9549    2.3969 H   0  0  0  0  0  0  0  0  0  0  0  0
   -4.9975   -5.2753    1.2101 H   0  0  0  0  0  0  0  0  0  0  0  0
   -3.4074   -4.5511    1.5511 H   0  0  0  0  0  0  0  0  0  0  0  0
   -3.1632   -2.2871    2.2602 H   0  0  0  0  0  0  0  0  0  0  0  0
   -2.4465    0.0290    2.1689 H   0  0  0  0  0  0  0  0  0  0  0  0
   -3.1959    2.3864   -1.8435 H   0  0  0  0  0  0  0  0  0  0  0  0
   -1.8603    3.2174   -1.0595 H   0  0  0  0  0  0  0  0  0  0  0  0
   -1.9022    0.2272   -1.6875 H   0  0  0  0  0  0  0  0  0  0  0  0
   -1.2171    1.4772   -2.7272 H   0  0  0  0  0  0  0  0  0  0  0  0
   -0.9553    1.6020    0.9519 H   0  0  0  0  0  0  0  0  0  0  0  0
    0.4390    2.0804   -0.8970 H   0  0  0  0  0  0  0  0  0  0  0  0
    2.0445   -0.5483    0.6668 H   0  0  0  0  0  0  0  0  0  0  0  0
    2.1550    1.1237    0.0951 H   0  0  0  0  0  0  0  0  0  0  0  0
    2.6624    0.2707   -2.2122 H   0  0  0  0  0  0  0  0  0  0  0  0
    2.6875   -1.3813   -1.5752 H   0  0  0  0  0  0  0  0  0  0  0  0
    4.4289    1.8612   -1.6407 H   0  0  0  0  0  0  0  0  0  0  0  0
    6.7282    2.1991   -0.9121 H   0  0  0  0  0  0  0  0  0  0  0  0
    8.4706    2.3596    0.6704 H   0  0  0  0  0  0  0  0  0  0  0  0
    9.0566    1.7174   -0.8916 H   0  0  0  0  0  0  0  0  0  0  0  0
    9.9184    1.3244    0.6163 H   0  0  0  0  0  0  0  0  0  0  0  0
    7.2575   -3.7527    1.5815 H   0  0  0  0  0  0  0  0  0  0  0  0
    5.6019   -3.1210    1.7492 H   0  0  0  0  0  0  0  0  0  0  0  0
    6.1876   -3.6966    0.1598 H   0  0  0  0  0  0  0  0  0  0  0  0
    4.4663   -2.0987   -0.0598 H   0  0  0  0  0  0  0  0  0  0  0  0
   -0.1791   -1.5488   -1.7966 H   0  0  0  0  0  0  0  0  0  0  0  0
   -1.0552   -1.2716   -0.2763 H   0  0  0  0  0  0  0  0  0  0  0  0
    0.5605   -1.9901   -0.2511 H   0  0  0  0  0  0  0  0  0  0  0  0
   -4.9602    2.5770   -0.2616 H   0  0  0  0  0  0  0  0  0  0  0  0
   -4.1995    2.7401    2.6789 H   0  0  0  0  0  0  0  0  0  0  0  0
   -5.1478    1.4435    1.9369 H   0  0  0  0  0  0  0  0  0  0  0  0
   -5.7864    3.0845    1.9916 H   0  0  0  0  0  0  0  0  0  0  0  0
   -3.1840    4.5888    1.1773 H   0  0  0  0  0  0  0  0  0  0  0  0
   -3.6017    4.6107   -0.5452 H   0  0  0  0  0  0  0  0  0  0  0  0
   -4.8443    4.8713    0.6676 H   0  0  0  0  0  0  0  0  0  0  0  0
   -1.1046    3.0207    2.8076 H   0  0  0  0  0  0  0  0  0  0  0  0
  1  2  2  0  0  0  0
  2  3  1  0  0  0  0
  3  4  1  0  0  0  0
  4  5  4  0  0  0  0
  5  6  4  0  0  0  0
  6  7  1  0  0  0  0
  7  8  4  0  0  0  0
  6  9  4  0  0  0  0
  9 10  1  0  0  0  0
 10 11  1  0  0  0  0
  9 12  4  0  0  0  0
  4 13  4  0  0  0  0
 12 13  4  0  0  0  0
  3 14  1  0  0  0  0
 14 15  1  0  0  0  0
 15 16  1  0  0  0  0
 16 17  4  0  0  0  0
 17 18  1  0  0  0  0
 18 19  1  0  0  0  0
 19 20  1  0  0  0  0
 20 21  4  0  0  0  0
 21 22  4  0  0  0  0
 22 23  4  0  0  0  0
 23 24  1  0  0  0  0
 24 25  1  0  0  0  0
 23 26  4  0  0  0  0
 26 27  1  0  0  0  0
 27 28  1  0  0  0  0
 20 29  4  0  0  0  0
 26 29  4  0  0  0  0
 17 30  1  0  0  0  0
  3 31  1  0  0  0  0
 31 32  1  0  0  0  0
 31 33  1  0  0  0  0
  5 34  1  0  0  0  0
  8 35  1  0  0  0  0
  8 37  1  0  0  0  0
 11 38  1  0  0  0  0
 11 39  1  0  0  0  0
 11 40  1  0  0  0  0
 12 41  1  0  0  0  0
 13 42  1  0  0  0  0
 14 43  1  0  0  0  0
 14 44  1  0  0  0  0
 15 45  1  0  0  0  0
 15 46  1  0  0  0  0
  2 47  1  0  0  0  0
 16 48  1  0  0  0  0
 18 49  1  0  0  0  0
 18 50  1  0  0  0  0
 19 51  1  0  0  0  0
 19 52  1  0  0  0  0
 21 53  1  0  0  0  0
 22 54  1  0  0  0  0
 25 55  1  0  0  0  0
 25 56  1  0  0  0  0
 25 57  1  0  0  0  0
 28 58  1  0  0  0  0
 28 59  1  0  0  0  0
 28 60  1  0  0  0  0
 29 61  1  0  0  0  0
 30 62  1  0  0  0  0
 30 63  1  0  0  0  0
 30 64  1  0  0  0  0
 31 65  1  0  0  0  0
 32 66  1  0  0  0  0
 32 67  1  0  0  0  0
 32 68  1  0  0  0  0
 33 69  1  0  0  0  0
 33 70  1  0  0  0  0
 33 71  1  0  0  0  0
  1 72  1  0  0  0  0
M  CHG  1   1   1
M  END
