          20
 
C              3.69917812        1.54703827       -0.21845195
N              2.73716872        0.50471023        0.01943563
C              2.99612928       -0.78343970        0.27043349
N              1.85421955       -1.47046349        0.45014616
C              0.82106359       -0.58932768        0.31060752
C              1.38375551        0.65256945        0.04257727
C              0.31950838        1.64221710       -0.11186422
O              0.36052905        2.82504944       -0.34613954
N             -0.84617416        0.88462509        0.08220825
C             -2.15988635        1.48391371        0.04159220
C             -0.62805495       -0.46035503        0.32971126
O             -1.49533128       -1.30518756        0.50593064
H              4.27704683        1.74513966        0.68564349
H              4.38360426        1.25766300       -1.01625730
H              3.16848252        2.45316880       -0.50556473
H              3.97967075       -1.20895512        0.32032683
H             -2.03101587        2.56471314        0.06498049
H             -2.68215618        1.20409878       -0.87482962
H             -2.73918261        1.15845075        0.90534165
H              1.78697154       -2.45626863        0.66074846
