 xtb: 6.6.1 (8d0f1dd)
          06052419583D

 25 25  0     0  0            999 V2000
    3.2834    0.9878    0.0488 C   0  0  0  0  0  0  0  0  0  0  0  0
    3.4154   -0.3760    0.0185 N   0  0  0  0  0  0  0  0  0  0  0  0
    2.6572   -1.3729   -0.0102 C   0  0  0  0  0  0  0  0  0  0  0  0
    1.2778   -1.5186   -0.0221 N   0  0  0  0  0  0  0  0  0  0  0  0
    0.1803   -0.7067   -0.0093 C   0  0  0  0  0  0  0  0  0  0  0  0
   -0.0531    0.6916   -0.0126 C   0  0  0  0  0  0  0  0  0  0  0  0
    0.7541    1.8080   -0.0207 C   0  0  0  0  0  0  0  0  0  0  0  0
    0.7187    2.9921   -0.0591 O   0  0  0  0  0  0  0  0  0  0  0  0
   -1.4497    0.8631   -0.0059 N   0  0  0  0  0  0  0  0  0  0  0  0
   -2.1936    2.0926   -0.0062 C   0  0  0  0  0  0  0  0  0  0  0  0
   -2.0702   -0.3568    0.0019 C   0  0  0  0  0  0  0  0  0  0  0  0
   -3.2485   -0.5886    0.0111 O   0  0  0  0  0  0  0  0  0  0  0  0
   -1.0454   -1.3104   -0.0017 N   0  0  0  0  0  0  0  0  0  0  0  0
   -1.3444   -2.7180    0.0034 C   0  0  0  0  0  0  0  0  0  0  0  0
    3.7257    1.3948    0.9618 H   0  0  0  0  0  0  0  0  0  0  0  0
    3.7761    1.4379   -0.8166 H   0  0  0  0  0  0  0  0  0  0  0  0
    2.1695    1.3377    0.0233 H   0  0  0  0  0  0  0  0  0  0  0  0
    3.1523   -2.3363   -0.0293 H   0  0  0  0  0  0  0  0  0  0  0  0
   -1.5240    2.9488    0.0109 H   0  0  0  0  0  0  0  0  0  0  0  0
   -2.8219    2.1408   -0.8982 H   0  0  0  0  0  0  0  0  0  0  0  0
   -2.8470    2.1227    0.8683 H   0  0  0  0  0  0  0  0  0  0  0  0
   -0.9501   -3.2070    0.8967 H   0  0  0  0  0  0  0  0  0  0  0  0
   -0.9705   -3.2097   -0.8972 H   0  0  0  0  0  0  0  0  0  0  0  0
   -2.4324   -2.8035    0.0154 H   0  0  0  0  0  0  0  0  0  0  0  0
    1.0007   -2.4951   -0.0400 H   0  0  0  0  0  0  0  0  0  0  0  0
  1  2  1  0  0  0  0
  2  3  2  0  0  0  0
  3  4  1  0  0  0  0
  4  5  1  0  0  0  0
  5  6  4  0  0  0  0
  6  7  4  0  0  0  0
  7  8  2  0  0  0  0
  6  9  1  0  0  0  0
  9 10  1  0  0  0  0
  9 11  1  0  0  0  0
 11 12  2  0  0  0  0
  5 13  4  0  0  0  0
 11 13  1  0  0  0  0
 13 14  1  0  0  0  0
  1 15  1  0  0  0  0
  1 16  1  0  0  0  0
  1 17  1  0  0  0  0
  3 18  1  0  0  0  0
 10 19  1  0  0  0  0
 10 20  1  0  0  0  0
 10 21  1  0  0  0  0
 14 22  1  0  0  0  0
 14 23  1  0  0  0  0
 14 24  1  0  0  0  0
  4 25  1  0  0  0  0
M  CHG  1   1   1
M  END
