 xtb: 6.6.1 (8d0f1dd)
          06052419593D

 25 25  0     0  0            999 V2000
    3.0233    1.1661    0.0036 C   0  0  0  0  0  0  0  0  0  0  0  0
    2.1836    0.1387    0.0055 N   0  0  0  0  0  0  0  0  0  0  0  0
    2.4775   -1.1825   -0.0094 C   0  0  0  0  0  0  0  0  0  0  0  0
    1.3285   -1.9129   -0.0014 N   0  0  0  0  0  0  0  0  0  0  0  0
    0.2761   -1.0512    0.0190 C   0  0  0  0  0  0  0  0  0  0  0  0
    0.7906    0.2340    0.0253 C   0  0  0  0  0  0  0  0  0  0  0  0
   -0.0580    1.4027    0.0345 C   0  0  0  0  0  0  0  0  0  0  0  0
    0.3195    2.5501    0.0446 O   0  0  0  0  0  0  0  0  0  0  0  0
   -1.4079    1.0449    0.0268 N   0  0  0  0  0  0  0  0  0  0  0  0
   -2.3846    2.1242    0.0150 C   0  0  0  0  0  0  0  0  0  0  0  0
   -1.9473   -0.2279    0.0250 C   0  0  0  0  0  0  0  0  0  0  0  0
   -3.1297   -0.4248    0.0215 O   0  0  0  0  0  0  0  0  0  0  0  0
   -1.0410   -1.3128    0.0256 N   0  0  0  0  0  0  0  0  0  0  0  0
   -1.5644   -2.6625    0.0256 C   0  0  0  0  0  0  0  0  0  0  0  0
    4.1061    1.0070   -0.0389 H   0  0  0  0  0  0  0  0  0  0  0  0
    5.8466    1.1053   -0.2799 H   0  0  0  0  0  0  0  0  0  0  0  0
    2.6127    2.1619    0.0131 H   0  0  0  0  0  0  0  0  0  0  0  0
    3.4642   -1.5973   -0.0252 H   0  0  0  0  0  0  0  0  0  0  0  0
   -1.8445    3.0680    0.0315 H   0  0  0  0  0  0  0  0  0  0  0  0
   -3.0004    2.0552   -0.8816 H   0  0  0  0  0  0  0  0  0  0  0  0
   -3.0375    2.0442    0.8839 H   0  0  0  0  0  0  0  0  0  0  0  0
   -1.2581   -3.1939    0.9271 H   0  0  0  0  0  0  0  0  0  0  0  0
   -1.2306   -3.2041   -0.8602 H   0  0  0  0  0  0  0  0  0  0  0  0
   -2.6522   -2.5923    0.0089 H   0  0  0  0  0  0  0  0  0  0  0  0
    1.2881   -2.9216   -0.0082 H   0  0  0  0  0  0  0  0  0  0  0  0
  1  2  4  0  0  0  0
  2  3  4  0  0  0  0
  3  4  4  0  0  0  0
  4  5  1  0  0  0  0
  2  6  1  0  0  0  0
  5  6  4  0  0  0  0
  6  7  1  0  0  0  0
  7  8  2  0  0  0  0
  7  9  1  0  0  0  0
  9 10  1  0  0  0  0
  9 11  1  0  0  0  0
 11 12  2  0  0  0  0
  5 13  4  0  0  0  0
 11 13  1  0  0  0  0
 13 14  1  0  0  0  0
  1 15  1  0  0  0  0
  1 17  1  0  0  0  0
  3 18  1  0  0  0  0
 10 19  1  0  0  0  0
 10 20  1  0  0  0  0
 10 21  1  0  0  0  0
 14 22  1  0  0  0  0
 14 23  1  0  0  0  0
 14 24  1  0  0  0  0
  4 25  1  0  0  0  0
M  CHG  1   1   1
M  END
