 xtb: 6.6.1 (8d0f1dd)
          06052419583D

 25 27  0     0  0            999 V2000
    3.1791    1.3660    0.0897 C   0  0  0  0  0  0  0  0  0  0  0  0
    2.7700    0.0655   -0.3720 N   0  0  0  0  0  0  0  0  0  0  0  0
    2.5906   -1.1332    0.1668 C   0  0  0  0  0  0  0  0  0  0  0  0
    1.4117   -1.7134    0.2689 N   0  0  0  0  0  0  0  0  0  0  0  0
    0.1347   -1.1855    0.1191 C   0  0  0  0  0  0  0  0  0  0  0  0
    1.8499    1.1363   -0.5361 C   0  0  0  0  0  0  0  0  0  0  0  0
   -0.1883    0.1444    0.1164 C   0  0  0  0  0  0  0  0  0  0  0  0
    0.7160    1.1578    0.2651 O   0  0  0  0  0  0  0  0  0  0  0  0
   -1.4732    0.5730    0.0303 N   0  0  0  0  0  0  0  0  0  0  0  0
   -1.7805    1.9861    0.1437 C   0  0  0  0  0  0  0  0  0  0  0  0
   -2.5573   -0.3126   -0.1991 C   0  0  0  0  0  0  0  0  0  0  0  0
   -3.6724    0.1000   -0.3504 O   0  0  0  0  0  0  0  0  0  0  0  0
   -2.2193   -1.6174   -0.2916 N   0  0  0  0  0  0  0  0  0  0  0  0
   -0.9631   -2.2213    0.0749 C   0  0  0  0  0  0  0  0  0  0  0  0
    3.2205    1.5240    1.1603 H   0  0  0  0  0  0  0  0  0  0  0  0
    3.9591    1.8427   -0.4872 H   0  0  0  0  0  0  0  0  0  0  0  0
    1.6747    1.4530   -1.5613 H   0  0  0  0  0  0  0  0  0  0  0  0
    3.4735   -1.6975    0.4346 H   0  0  0  0  0  0  0  0  0  0  0  0
   -1.1918    2.5687   -0.5651 H   0  0  0  0  0  0  0  0  0  0  0  0
   -2.8412    2.1009   -0.0740 H   0  0  0  0  0  0  0  0  0  0  0  0
   -1.5729    2.3379    1.1551 H   0  0  0  0  0  0  0  0  0  0  0  0
   -1.0479   -2.7154    1.0589 H   0  0  0  0  0  0  0  0  0  0  0  0
   -0.7217   -2.9938   -0.6680 H   0  0  0  0  0  0  0  0  0  0  0  0
   -3.0013   -2.2418   -0.4327 H   0  0  0  0  0  0  0  0  0  0  0  0
    1.4114   -2.7062    0.4849 H   0  0  0  0  0  0  0  0  0  0  0  0
  1  2  1  0  0  0  0
  2  3  4  0  0  0  0
  3  4  4  0  0  0  0
  4  5  1  0  0  0  0
  1  6  1  0  0  0  0
  2  6  1  0  0  0  0
  5  7  4  0  0  0  0
  6  8  1  0  0  0  0
  7  8  1  0  0  0  0
  7  9  4  0  0  0  0
  9 10  1  0  0  0  0
  9 11  1  0  0  0  0
 11 12  2  0  0  0  0
 11 13  4  0  0  0  0
  5 14  1  0  0  0  0
 13 14  1  0  0  0  0
  1 15  1  0  0  0  0
  1 16  1  0  0  0  0
  6 17  1  0  0  0  0
  3 18  1  0  0  0  0
 10 19  1  0  0  0  0
 10 20  1  0  0  0  0
 10 21  1  0  0  0  0
 14 22  1  0  0  0  0
 14 23  1  0  0  0  0
 13 24  1  0  0  0  0
  4 25  1  0  0  0  0
M  CHG  1   1   1
M  END
