 xtb: 6.6.1 (8d0f1dd)
          06052419583D

 25 26  0     0  0            999 V2000
    3.1116    1.1457    0.0313 C   0  0  0  0  0  0  0  0  0  0  0  0
    2.2750   -0.0484   -0.0137 N   0  0  0  0  0  0  0  0  0  0  0  0
    2.8648   -1.1944   -0.0419 C   0  0  0  0  0  0  0  0  0  0  0  0
    0.9404   -2.3670   -0.0223 N   0  0  0  0  0  0  0  0  0  0  0  0
    0.2649   -1.2741   -0.0068 C   0  0  0  0  0  0  0  0  0  0  0  0
    0.9083    0.0163   -0.0039 C   0  0  0  0  0  0  0  0  0  0  0  0
    0.1194    1.2318   -0.0182 C   0  0  0  0  0  0  0  0  0  0  0  0
    0.5763    2.3588   -0.0483 O   0  0  0  0  0  0  0  0  0  0  0  0
   -1.2519    1.0210    0.0004 N   0  0  0  0  0  0  0  0  0  0  0  0
   -2.1268    2.1804   -0.0044 C   0  0  0  0  0  0  0  0  0  0  0  0
   -1.8993   -0.2024    0.0157 C   0  0  0  0  0  0  0  0  0  0  0  0
   -3.0980   -0.2851    0.0314 O   0  0  0  0  0  0  0  0  0  0  0  0
   -1.0921   -1.3339    0.0090 N   0  0  0  0  0  0  0  0  0  0  0  0
   -1.7167   -2.6423    0.0113 C   0  0  0  0  0  0  0  0  0  0  0  0
    3.5484    1.2471    1.0259 H   0  0  0  0  0  0  0  0  0  0  0  0
    3.9152    1.0670   -0.6991 H   0  0  0  0  0  0  0  0  0  0  0  0
    2.5056    2.0298   -0.1756 H   0  0  0  0  0  0  0  0  0  0  0  0
    3.9158   -1.4041   -0.0305 H   0  0  0  0  0  0  0  0  0  0  0  0
   -1.5134    3.0787    0.0045 H   0  0  0  0  0  0  0  0  0  0  0  0
   -2.7597    2.1622   -0.8932 H   0  0  0  0  0  0  0  0  0  0  0  0
   -2.7773    2.1533    0.8710 H   0  0  0  0  0  0  0  0  0  0  0  0
   -1.3972   -3.1997    0.8929 H   0  0  0  0  0  0  0  0  0  0  0  0
   -1.4090   -3.1969   -0.8761 H   0  0  0  0  0  0  0  0  0  0  0  0
   -2.7966   -2.5094    0.0191 H   0  0  0  0  0  0  0  0  0  0  0  0
    2.0526   -2.2164   -0.0473 H   0  0  0  0  0  0  0  0  0  0  0  0
  1  2  1  0  0  0  0
  2  3  2  0  0  0  0
  4  5  2  0  0  0  0
  2  6  1  0  0  0  0
  5  6  1  0  0  0  0
  6  7  1  0  0  0  0
  7  8  2  0  0  0  0
  7  9  1  0  0  0  0
  9 10  1  0  0  0  0
  9 11  1  0  0  0  0
 11 12  2  0  0  0  0
  5 13  1  0  0  0  0
 11 13  1  0  0  0  0
 13 14  1  0  0  0  0
  1 15  1  0  0  0  0
  1 16  1  0  0  0  0
  1 17  1  0  0  0  0
  3 18  1  0  0  0  0
 10 19  1  0  0  0  0
 10 20  1  0  0  0  0
 10 21  1  0  0  0  0
 14 22  1  0  0  0  0
 14 23  1  0  0  0  0
 14 24  1  0  0  0  0
  3 25  1  0  0  0  0
  4 25  1  0  0  0  0
M  CHG  1   1   1
M  END
