          24
 
C              3.15521779        1.07490826        0.00779825
N              2.28259159        0.07272257        0.01072859
C              2.54582700       -1.25465561        0.02359220
N              1.37874661       -1.95516204        0.02169060
C              0.34955696       -1.06771231        0.01042079
C              0.89636533        0.20479232        0.00293441
C              0.07320031        1.39292526        0.00014056
O              0.47299692        2.53204873       -0.00895361
N             -1.28426518        1.06415049        0.01285843
C             -2.23921438        2.16378118        0.03371976
C             -1.85473897       -0.19524883        0.00889343
O             -3.04137075       -0.36486594        0.01243421
N             -0.97324420       -1.29889435        0.00090357
C             -1.52444945       -2.63888567       -0.00390493
H              4.20588939        0.85943369        0.02611005
H              2.78004155        2.08224165       -0.00291354
H              3.52407223       -1.68811315        0.03793686
H             -1.68216968        3.09716036        0.00055186
H             -2.90845405        2.08899623       -0.82329021
H             -2.83980639        2.11432793        0.94231628
H             -1.20011601       -3.19011808        0.87915073
H             -1.22809671       -3.17038007       -0.90885406
H             -2.61020897       -2.54676451        0.01380266
H              1.31267368       -2.96186170        0.03891896
