          24
 
C              3.37315380        0.58738951        0.01175253
N              2.25653361       -0.31693770        0.00127917
C              2.31078183       -1.65386850        0.00949808
N              1.05179755       -2.16379079        0.00466888
C              0.17469615       -1.11945480       -0.00323172
C              0.92750711        0.05181191       -0.00536080
C              0.32796910        1.34785625       -0.01626204
O              0.88861857        2.42542362       -0.04307661
N             -1.10802918        1.26498045        0.00850706
C             -1.78679340        2.42261607        0.03580076
C             -1.87614935        0.06971824        0.00824137
O             -3.07912464        0.10175370        0.02704681
N             -1.17609510       -1.13501317       -0.01944632
C             -1.92166657       -2.37866977       -0.02868815
H              3.86369723        0.57644644        0.98692402
H              4.09882907        0.30042874       -0.74881544
H              3.01020284        1.59531210       -0.18645046
H              3.20855878       -2.23708253        0.01920501
H             -1.22012632        3.33740965        0.03449924
H             -2.86088272        2.39363760        0.05086550
H             -1.72148670       -2.95094496        0.87790663
H             -1.66415685       -2.96735858       -0.90960997
H             -2.98159388       -2.13037392       -0.06351662
H              0.82317284       -3.14658497        0.01327442
