 xtb: 6.6.1 (8d0f1dd)
          04062411113D

 72 72  0     0  0            999 V2000
   -1.5794    2.6040    2.2145 N   0  0  0  0  0  0  0  0  0  0  0  0
   -2.2948    2.2953    1.3767 C   0  0  0  0  0  0  0  0  0  0  0  0
   -3.2017    1.9725    0.2939 C   0  0  0  0  0  0  0  0  0  0  0  0
   -3.6730    0.5330    0.3964 C   0  0  0  0  0  0  0  0  0  0  0  0
   -4.5330    0.0234   -0.5757 C   0  0  0  0  0  0  0  0  0  0  0  0
   -4.9756   -1.2896   -0.5273 C   0  0  0  0  0  0  0  0  0  0  0  0
   -5.8138   -1.8620   -1.4099 O   0  0  0  0  0  0  0  0  0  0  0  0
   -6.3784   -1.0834   -2.4397 C   0  0  0  0  0  0  0  0  0  0  0  0
   -4.5297   -2.1415    0.5244 C   0  0  0  0  0  0  0  0  0  0  0  0
   -4.9910   -3.4023    0.4805 O   0  0  0  0  0  0  0  0  0  0  0  0
   -4.6210   -4.3092    1.4939 C   0  0  0  0  0  0  0  0  0  0  0  0
   -3.6801   -1.6201    1.4903 C   0  0  0  0  0  0  0  0  0  0  0  0
   -3.2628   -0.2994    1.4296 C   0  0  0  0  0  0  0  0  0  0  0  0
   -2.4348    2.2025   -1.0376 C   0  0  0  0  0  0  0  0  0  0  0  0
   -1.4884    1.0675   -1.4319 C   0  0  0  0  0  0  0  0  0  0  0  0
   -0.3393    0.8827   -0.4362 C   0  0  0  0  0  0  0  0  0  0  0  0
    0.6146   -0.1010   -0.8837 N   0  0  0  0  0  0  0  0  0  0  0  0
    1.9702    0.0294   -0.4128 C   0  0  0  0  0  0  0  0  0  0  0  0
    2.9803   -0.3317   -1.5216 C   0  0  0  0  0  0  0  0  0  0  0  0
    4.3847   -0.1279   -1.0380 C   0  0  0  0  0  0  0  0  0  0  0  0
    5.0296    1.0893   -1.2247 C   0  0  0  0  0  0  0  0  0  0  0  0
    6.3184    1.2927   -0.7622 C   0  0  0  0  0  0  0  0  0  0  0  0
    6.9972    0.2802   -0.0937 C   0  0  0  0  0  0  0  0  0  0  0  0
    8.2425    0.3597    0.3964 O   0  0  0  0  0  0  0  0  0  0  0  0
    8.9814    1.5490    0.2299 C   0  0  0  0  0  0  0  0  0  0  0  0
    6.3442   -0.9728    0.1069 C   0  0  0  0  0  0  0  0  0  0  0  0
    7.0754   -1.8957    0.7529 O   0  0  0  0  0  0  0  0  0  0  0  0
    6.5335   -3.1737    0.9919 C   0  0  0  0  0  0  0  0  0  0  0  0
    5.0509   -1.1485   -0.3650 C   0  0  0  0  0  0  0  0  0  0  0  0
    0.1011   -1.4464   -0.9473 C   0  0  0  0  0  0  0  0  0  0  0  0
   -4.4241    2.9373    0.4143 C   0  0  0  0  0  0  0  0  0  0  0  0
   -5.1725    2.6784    1.7210 C   0  0  0  0  0  0  0  0  0  0  0  0
   -4.0107    4.4046    0.3322 C   0  0  0  0  0  0  0  0  0  0  0  0
   -4.8614    0.6603   -1.3808 H   0  0  0  0  0  0  0  0  0  0  0  0
   -6.9475   -0.2401   -2.0371 H   0  0  0  0  0  0  0  0  0  0  0  0
   -7.0526   -1.7506   -2.9731 H   0  0  0  0  0  0  0  0  0  0  0  0
   -5.6138   -0.7150   -3.1308 H   0  0  0  0  0  0  0  0  0  0  0  0
   -4.9574   -3.9693    2.4776 H   0  0  0  0  0  0  0  0  0  0  0  0
   -5.1186   -5.2444    1.2452 H   0  0  0  0  0  0  0  0  0  0  0  0
   -3.5384   -4.4678    1.5124 H   0  0  0  0  0  0  0  0  0  0  0  0
   -3.3407   -2.2361    2.3071 H   0  0  0  0  0  0  0  0  0  0  0  0
   -2.6191    0.0794    2.2090 H   0  0  0  0  0  0  0  0  0  0  0  0
   -3.1673    2.3334   -1.8361 H   0  0  0  0  0  0  0  0  0  0  0  0
   -1.8634    3.1287   -0.9550 H   0  0  0  0  0  0  0  0  0  0  0  0
   -2.0517    0.1382   -1.5225 H   0  0  0  0  0  0  0  0  0  0  0  0
   -1.0619    1.3001   -2.4096 H   0  0  0  0  0  0  0  0  0  0  0  0
   -0.7539    0.5907    0.5409 H   0  0  0  0  0  0  0  0  0  0  0  0
    0.1743    1.8372   -0.3097 H   0  0  0  0  0  0  0  0  0  0  0  0
    2.1546   -0.6121    0.4617 H   0  0  0  0  0  0  0  0  0  0  0  0
    2.1456    1.0633   -0.1102 H   0  0  0  0  0  0  0  0  0  0  0  0
    2.7835    0.3054   -2.3840 H   0  0  0  0  0  0  0  0  0  0  0  0
    2.8376   -1.3696   -1.8234 H   0  0  0  0  0  0  0  0  0  0  0  0
    4.5242    1.8875   -1.7460 H   0  0  0  0  0  0  0  0  0  0  0  0
    6.7932    2.2457   -0.9290 H   0  0  0  0  0  0  0  0  0  0  0  0
    8.4909    2.3962    0.7178 H   0  0  0  0  0  0  0  0  0  0  0  0
    9.1373    1.7758   -0.8288 H   0  0  0  0  0  0  0  0  0  0  0  0
    9.9426    1.3645    0.7059 H   0  0  0  0  0  0  0  0  0  0  0  0
    7.3191   -3.7342    1.4950 H   0  0  0  0  0  0  0  0  0  0  0  0
    5.6544   -3.1193    1.6412 H   0  0  0  0  0  0  0  0  0  0  0  0
    6.2697   -3.6784    0.0577 H   0  0  0  0  0  0  0  0  0  0  0  0
    4.5505   -2.0934   -0.2213 H   0  0  0  0  0  0  0  0  0  0  0  0
   -0.5221   -1.5694   -1.8338 H   0  0  0  0  0  0  0  0  0  0  0  0
   -0.5063   -1.6855   -0.0648 H   0  0  0  0  0  0  0  0  0  0  0  0
    0.9195   -2.1583   -1.0083 H   0  0  0  0  0  0  0  0  0  0  0  0
   -5.0969    2.7187   -0.4216 H   0  0  0  0  0  0  0  0  0  0  0  0
   -4.5281    2.8747    2.5757 H   0  0  0  0  0  0  0  0  0  0  0  0
   -5.5203    1.6490    1.7795 H   0  0  0  0  0  0  0  0  0  0  0  0
   -6.0363    3.3350    1.7890 H   0  0  0  0  0  0  0  0  0  0  0  0
   -3.2828    4.6449    1.1043 H   0  0  0  0  0  0  0  0  0  0  0  0
   -3.5875    4.6514   -0.6381 H   0  0  0  0  0  0  0  0  0  0  0  0
   -4.8840    5.0344    0.4841 H   0  0  0  0  0  0  0  0  0  0  0  0
   -0.0982    3.6971    4.5925 H   0  0  0  0  0  0  0  0  0  0  0  0
  1  2  3  0  0  0  0
  2  3  1  0  0  0  0
  3  4  1  0  0  0  0
  4  5  4  0  0  0  0
  5  6  4  0  0  0  0
  6  7  1  0  0  0  0
  7  8  1  0  0  0  0
  6  9  4  0  0  0  0
  9 10  1  0  0  0  0
 10 11  1  0  0  0  0
  9 12  4  0  0  0  0
  4 13  4  0  0  0  0
 12 13  4  0  0  0  0
  3 14  1  0  0  0  0
 14 15  1  0  0  0  0
 15 16  1  0  0  0  0
 16 17  1  0  0  0  0
 17 18  1  0  0  0  0
 18 19  1  0  0  0  0
 19 20  1  0  0  0  0
 20 21  4  0  0  0  0
 21 22  4  0  0  0  0
 22 23  4  0  0  0  0
 23 24  1  0  0  0  0
 24 25  1  0  0  0  0
 23 26  1  0  0  0  0
 26 27  1  0  0  0  0
 27 28  1  0  0  0  0
 20 29  4  0  0  0  0
 26 29  4  0  0  0  0
 17 30  1  0  0  0  0
  3 31  1  0  0  0  0
 31 32  1  0  0  0  0
 31 33  1  0  0  0  0
  5 34  1  0  0  0  0
  8 35  1  0  0  0  0
  8 36  1  0  0  0  0
  8 37  1  0  0  0  0
 11 38  1  0  0  0  0
 11 39  1  0  0  0  0
 11 40  1  0  0  0  0
 12 41  1  0  0  0  0
 13 42  1  0  0  0  0
 14 43  1  0  0  0  0
 14 44  1  0  0  0  0
 15 45  1  0  0  0  0
 15 46  1  0  0  0  0
 16 47  1  0  0  0  0
 16 48  1  0  0  0  0
 18 49  1  0  0  0  0
 18 50  1  0  0  0  0
 19 51  1  0  0  0  0
 19 52  1  0  0  0  0
 21 53  1  0  0  0  0
 22 54  1  0  0  0  0
 25 55  1  0  0  0  0
 25 56  1  0  0  0  0
 25 57  1  0  0  0  0
 28 58  1  0  0  0  0
 28 59  1  0  0  0  0
 28 60  1  0  0  0  0
 29 61  1  0  0  0  0
 30 62  1  0  0  0  0
 30 63  1  0  0  0  0
 30 64  1  0  0  0  0
 31 65  1  0  0  0  0
 32 66  1  0  0  0  0
 32 67  1  0  0  0  0
 32 68  1  0  0  0  0
 33 69  1  0  0  0  0
 33 70  1  0  0  0  0
 33 71  1  0  0  0  0
M  CHG  1   1   1
M  END
