          71
 
N             -1.72725359        2.71626090        2.47113336
C             -1.73134767        2.10659861        1.38230751
C             -2.90784185        2.01332591        0.45289577
C             -3.43262458        0.58614157        0.43564683
C             -4.39169953        0.22998487       -0.50338496
C             -4.93051419       -1.05041556       -0.53847783
O             -5.88838886       -1.46135759       -1.40801759
C             -6.47775638       -0.70703336       -2.29184322
C             -4.48621261       -2.03615960        0.38401993
O             -5.04890076       -3.25180584        0.26380956
C             -4.69653755       -4.26796977        1.17699059
C             -3.52635114       -1.66903022        1.31770685
C             -3.01536093       -0.37775783        1.34761900
C             -2.38408885        2.39871608       -0.95368117
C             -1.48658651        1.33838762       -1.61493201
C             -0.14464473        1.22679778       -1.00387830
N              0.48825059        0.09258825       -0.73721696
C              1.87182030        0.09887685       -0.32136119
C              2.81821450       -0.28225851       -1.47571746
C              4.24694792       -0.20898862       -1.01333056
C              4.95537800        0.97903102       -1.09676224
C              6.26577622        1.05753634       -0.65182951
C              6.89493177       -0.05347737       -0.10801888
O              8.15872345       -0.09511350        0.35006918
C              8.95706716        1.06404817        0.27741129
C              6.17410201       -1.27676019       -0.01331438
O              6.86035539       -2.30448207        0.52331413
C              6.24655777       -3.56694480        0.62633913
C              4.86399682       -1.32998076       -0.46313624
C             -0.14804659       -1.19331574       -0.89912367
C             -4.08478622        2.95658227        0.84748829
C             -4.70444453        2.55211260        2.18244288
C             -3.68375160        4.42789609        0.88780947
H             -4.72255136        0.96851629       -1.22653369
H             -6.25475912        0.34025477       -2.43985884
H             -7.22231418       -1.21211399       -2.88106049
H             -4.91648749       -3.97439025        2.20670565
H             -5.30916163       -5.12566986        0.90710237
H             -3.63916357       -4.53485674        1.08748612
H             -3.17743534       -2.38456111        2.04437572
H             -2.29766117       -0.12539918        2.11298319
H             -3.24473058        2.56138810       -1.60996715
H             -1.83739230        3.33891009       -0.88297712
H             -2.00428112        0.38121810       -1.63633137
H             -1.34442280        1.66032613       -2.65470545
H             -0.84186321        1.59695744        0.95822466
H              0.43105969        2.13568017       -0.90055353
H              2.00160669       -0.60760147        0.50328395
H              2.13715657        1.09511926        0.03803117
H              2.65925959        0.41148018       -2.30291553
H              2.58723873       -1.29053866       -1.82131500
H              4.49261462        1.85520044       -1.52481515
H              6.79377452        1.99283655       -0.73880560
H              8.53082522        1.88173086        0.86639268
H              9.09427276        1.39108766       -0.75755965
H              9.92046782        0.78128957        0.69723940
H              6.99951443       -4.22324130        1.05832022
H              5.37349024       -3.53613507        1.28620114
H              5.95188264       -3.95137684       -0.35500687
H              4.31240801       -2.25524500       -0.40307987
H             -0.34364871       -1.40638057       -1.95210070
H             -1.09436601       -1.22194073       -0.35341618
H              0.50352595       -1.96826452       -0.50360982
H             -4.84582091        2.83904129        0.06852738
H             -3.97818027        2.66807103        2.98105536
H             -5.04789472        1.52038859        2.16344631
H             -5.55733044        3.19111290        2.39530186
H             -2.89007517        4.58752065        1.61189982
H             -3.36229220        4.78493097       -0.08648421
H             -4.54250159        5.02161316        1.18987343
H             -0.86469225        2.74008524        3.00542532
