          24
 
C              3.24079561        1.12372016        0.01165933
N              2.25515930        0.08072619       -0.00049288
C              2.47518678       -1.25545975       -0.00267750
N              1.36775289       -1.96048000       -0.00327743
C              0.36348577       -1.05817034       -0.00048309
C              0.90316006        0.23936988        0.00164124
C              0.06806133        1.41537956       -0.00268053
O              0.45812895        2.56130870       -0.00947199
N             -1.28629283        1.08121004        0.00006212
C             -2.24306491        2.17387009        0.00048753
C             -1.84215595       -0.19400487        0.00281411
O             -3.03380032       -0.35696981        0.00655498
N             -0.96270321       -1.28321327        0.00038551
C             -1.49217352       -2.62446203       -0.00168914
H              3.79578038        1.10841399        0.95213799
H              3.94599337        0.98511044       -0.80909966
H              2.74224724        2.08743395       -0.09220516
H              3.45729639       -1.68721093       -0.00430738
H             -1.68985750        3.11153729        0.00505129
H             -2.87968681        2.11469308       -0.88397949
H             -2.88518073        2.10834161        0.88043065
H             -1.12651573       -3.16693541        0.87120337
H             -1.15980631       -3.15197876       -0.89713291
H             -2.57906146       -2.56692980        0.01802167
