 xtb: 6.6.1 (8d0f1dd)
          06052419593D

 25 26  0     0  0            999 V2000
    3.6957    0.8217   -0.3701 C   0  0  0  0  0  0  0  0  0  0  0  0
    2.6057   -0.0931   -0.1837 N   0  0  0  0  0  0  0  0  0  0  0  0
    2.6717   -1.4111   -0.0503 C   0  0  0  0  0  0  0  0  0  0  0  0
    1.4225   -1.9222    0.0976 N   0  0  0  0  0  0  0  0  0  0  0  0
    0.5356   -0.8876    0.0539 C   0  0  0  0  0  0  0  0  0  0  0  0
    1.2803    0.2720   -0.1227 C   0  0  0  0  0  0  0  0  0  0  0  0
    0.6387    1.5719   -0.1849 C   0  0  0  0  0  0  0  0  0  0  0  0
    1.1598    2.6388   -0.3086 O   0  0  0  0  0  0  0  0  0  0  0  0
   -2.7199    0.3295    0.1577 N   0  0  0  0  0  0  0  0  0  0  0  0
   -3.5676    1.4733    0.1044 C   0  0  0  0  0  0  0  0  0  0  0  0
   -1.4715    0.3304    0.0772 C   0  0  0  0  0  0  0  0  0  0  0  0
   -0.7269    1.4650   -0.0759 O   0  0  0  0  0  0  0  0  0  0  0  0
   -0.8027   -0.9062    0.1467 N   0  0  0  0  0  0  0  0  0  0  0  0
   -1.5508   -2.1298    0.3448 C   0  0  0  0  0  0  0  0  0  0  0  0
    3.6876    1.5738    0.4200 H   0  0  0  0  0  0  0  0  0  0  0  0
    4.6390    0.2813   -0.3582 H   0  0  0  0  0  0  0  0  0  0  0  0
    3.5818    1.3461   -1.3200 H   0  0  0  0  0  0  0  0  0  0  0  0
    3.5691   -1.9963   -0.0568 H   0  0  0  0  0  0  0  0  0  0  0  0
   -3.0352    2.4197    0.2163 H   0  0  0  0  0  0  0  0  0  0  0  0
   -4.0928    1.4620   -0.8520 H   0  0  0  0  0  0  0  0  0  0  0  0
   -4.3111    1.3622    0.8941 H   0  0  0  0  0  0  0  0  0  0  0  0
   -1.3996   -2.5124    1.3553 H   0  0  0  0  0  0  0  0  0  0  0  0
   -1.2494   -2.8773   -0.3886 H   0  0  0  0  0  0  0  0  0  0  0  0
   -2.6039   -1.8938    0.2099 H   0  0  0  0  0  0  0  0  0  0  0  0
    1.2046   -2.8996    0.2251 H   0  0  0  0  0  0  0  0  0  0  0  0
  1  2  1  0  0  0  0
  2  3  4  0  0  0  0
  3  4  4  0  0  0  0
  4  5  1  0  0  0  0
  2  6  1  0  0  0  0
  5  6  4  0  0  0  0
  6  7  1  0  0  0  0
  7  8  2  0  0  0  0
  9 10  1  0  0  0  0
  9 11  2  0  0  0  0
  7 12  1  0  0  0  0
 11 12  1  0  0  0  0
  5 13  4  0  0  0  0
 11 13  1  0  0  0  0
 13 14  1  0  0  0  0
  1 15  1  0  0  0  0
  1 16  1  0  0  0  0
  1 17  1  0  0  0  0
  3 18  1  0  0  0  0
 10 19  1  0  0  0  0
 10 20  1  0  0  0  0
 10 21  1  0  0  0  0
 14 22  1  0  0  0  0
 14 23  1  0  0  0  0
 14 24  1  0  0  0  0
  4 25  1  0  0  0  0
M  CHG  1   1   1
M  END
