 xtb: 6.6.1 (8d0f1dd)
          04062411153D

 72 72  0     0  0            999 V2000
   -1.9993    2.7278    2.5794 N   0  0  0  0  0  0  0  0  0  0  0  0
   -1.8044    2.1628    1.4831 C   0  0  0  0  0  0  0  0  0  0  0  0
   -2.8919    1.9779    0.4527 C   0  0  0  0  0  0  0  0  0  0  0  0
   -3.3973    0.5439    0.4702 C   0  0  0  0  0  0  0  0  0  0  0  0
   -4.3946    0.1779   -0.4363 C   0  0  0  0  0  0  0  0  0  0  0  0
   -4.8972   -1.1115   -0.4703 C   0  0  0  0  0  0  0  0  0  0  0  0
   -5.8626   -1.5494   -1.3030 O   0  0  0  0  0  0  0  0  0  0  0  0
   -6.4948   -0.6320   -2.1648 C   0  0  0  0  0  0  0  0  0  0  0  0
   -4.3837   -2.0849    0.4307 C   0  0  0  0  0  0  0  0  0  0  0  0
   -4.9244   -3.3150    0.3227 O   0  0  0  0  0  0  0  0  0  0  0  0
   -4.5293   -4.3193    1.2276 C   0  0  0  0  0  0  0  0  0  0  0  0
   -3.4015   -1.7089    1.3320 C   0  0  0  0  0  0  0  0  0  0  0  0
   -2.9137   -0.4070    1.3521 C   0  0  0  0  0  0  0  0  0  0  0  0
   -2.2707    2.2848   -0.9329 C   0  0  0  0  0  0  0  0  0  0  0  0
   -1.3336    1.1864   -1.4623 C   0  0  0  0  0  0  0  0  0  0  0  0
   -0.0150    1.1440   -0.7917 C   0  0  0  0  0  0  0  0  0  0  0  0
    0.6223    0.0405   -0.4197 N   0  0  0  0  0  0  0  0  0  0  0  0
    2.0168    0.0914   -0.0483 C   0  0  0  0  0  0  0  0  0  0  0  0
    2.9259   -0.3330   -1.2188 C   0  0  0  0  0  0  0  0  0  0  0  0
    4.3704   -0.1592   -0.8433 C   0  0  0  0  0  0  0  0  0  0  0  0
    5.0112    1.0511   -1.0536 C   0  0  0  0  0  0  0  0  0  0  0  0
    6.3382    1.2239   -0.6926 C   0  0  0  0  0  0  0  0  0  0  0  0
    7.0514    0.1876   -0.1076 C   0  0  0  0  0  0  0  0  0  0  0  0
    8.3399    0.2403    0.2772 O   0  0  0  0  0  0  0  0  0  0  0  0
    9.0731    1.4247    0.0636 C   0  0  0  0  0  0  0  0  0  0  0  0
    6.4004   -1.0570    0.1179 C   0  0  0  0  0  0  0  0  0  0  0  0
    7.1668   -2.0086    0.6869 O   0  0  0  0  0  0  0  0  0  0  0  0
    6.6220   -3.2855    0.9194 C   0  0  0  0  0  0  0  0  0  0  0  0
    5.0726   -1.2056   -0.2501 C   0  0  0  0  0  0  0  0  0  0  0  0
    0.0155   -1.2651   -0.5182 C   0  0  0  0  0  0  0  0  0  0  0  0
   -4.0454    2.9252    0.7816 C   0  0  0  0  0  0  0  0  0  0  0  0
   -4.9409    2.4937    1.8981 C   0  0  0  0  0  0  0  0  0  0  0  0
   -4.2233    4.0885    0.1694 C   0  0  0  0  0  0  0  0  0  0  0  0
   -4.7946    0.9271   -1.0996 H   0  0  0  0  0  0  0  0  0  0  0  0
   -6.9679    0.1809   -1.6058 H   0  0  0  0  0  0  0  0  0  0  0  0
   -7.2584   -1.2034   -2.6886 H   0  0  0  0  0  0  0  0  0  0  0  0
   -5.7922   -0.2146   -2.8931 H   0  0  0  0  0  0  0  0  0  0  0  0
   -4.7410   -4.0327    2.2620 H   0  0  0  0  0  0  0  0  0  0  0  0
   -5.1208   -5.1949    0.9676 H   0  0  0  0  0  0  0  0  0  0  0  0
   -3.4657   -4.5574    1.1244 H   0  0  0  0  0  0  0  0  0  0  0  0
   -3.0119   -2.4221    2.0403 H   0  0  0  0  0  0  0  0  0  0  0  0
   -2.1685   -0.1428    2.0867 H   0  0  0  0  0  0  0  0  0  0  0  0
   -3.0797    2.4075   -1.6518 H   0  0  0  0  0  0  0  0  0  0  0  0
   -1.7227    3.2266   -0.8768 H   0  0  0  0  0  0  0  0  0  0  0  0
   -1.8396    0.2235   -1.4219 H   0  0  0  0  0  0  0  0  0  0  0  0
   -1.1475    1.4178   -2.5200 H   0  0  0  0  0  0  0  0  0  0  0  0
   -0.8273    1.7697    1.1428 H   0  0  0  0  0  0  0  0  0  0  0  0
    0.5443    2.0661   -0.7316 H   0  0  0  0  0  0  0  0  0  0  0  0
    2.1873   -0.5694    0.8056 H   0  0  0  0  0  0  0  0  0  0  0  0
    2.2758    1.1094    0.2497 H   0  0  0  0  0  0  0  0  0  0  0  0
    2.6911    0.2893   -2.0844 H   0  0  0  0  0  0  0  0  0  0  0  0
    2.7272   -1.3738   -1.4770 H   0  0  0  0  0  0  0  0  0  0  0  0
    4.4816    1.8699   -1.5165 H   0  0  0  0  0  0  0  0  0  0  0  0
    6.8122    2.1739   -0.8773 H   0  0  0  0  0  0  0  0  0  0  0  0
    8.6458    2.2659    0.6178 H   0  0  0  0  0  0  0  0  0  0  0  0
    9.1262    1.6759   -0.9999 H   0  0  0  0  0  0  0  0  0  0  0  0
   10.0746    1.2189    0.4364 H   0  0  0  0  0  0  0  0  0  0  0  0
    7.4280   -3.8713    1.3570 H   0  0  0  0  0  0  0  0  0  0  0  0
    5.7843   -3.2425    1.6228 H   0  0  0  0  0  0  0  0  0  0  0  0
    6.2958   -3.7584   -0.0120 H   0  0  0  0  0  0  0  0  0  0  0  0
    4.5726   -2.1483   -0.0916 H   0  0  0  0  0  0  0  0  0  0  0  0
   -0.0979   -1.5725   -1.5604 H   0  0  0  0  0  0  0  0  0  0  0  0
   -0.9683   -1.2643   -0.0440 H   0  0  0  0  0  0  0  0  0  0  0  0
    0.6447   -1.9909   -0.0091 H   0  0  0  0  0  0  0  0  0  0  0  0
   -6.4478    2.9046   -1.9390 H   0  0  0  0  0  0  0  0  0  0  0  0
   -4.3544    2.4243    2.8121 H   0  0  0  0  0  0  0  0  0  0  0  0
   -5.3751    1.5144    1.7077 H   0  0  0  0  0  0  0  0  0  0  0  0
   -5.7376    3.2140    2.0466 H   0  0  0  0  0  0  0  0  0  0  0  0
   -3.5915    4.4619   -0.6161 H   0  0  0  0  0  0  0  0  0  0  0  0
   -5.9391    3.1793   -1.4115 H   0  0  0  0  0  0  0  0  0  0  0  0
   -5.0291    4.7415    0.4600 H   0  0  0  0  0  0  0  0  0  0  0  0
   -1.2094    2.8309    3.2085 H   0  0  0  0  0  0  0  0  0  0  0  0
  1  2  2  0  0  0  0
  2  3  1  0  0  0  0
  3  4  1  0  0  0  0
  4  5  4  0  0  0  0
  5  6  4  0  0  0  0
  6  7  1  0  0  0  0
  7  8  1  0  0  0  0
  6  9  4  0  0  0  0
  9 10  1  0  0  0  0
 10 11  1  0  0  0  0
  9 12  4  0  0  0  0
  4 13  4  0  0  0  0
 12 13  4  0  0  0  0
  3 14  1  0  0  0  0
 14 15  1  0  0  0  0
 15 16  1  0  0  0  0
 16 17  4  0  0  0  0
 17 18  1  0  0  0  0
 18 19  1  0  0  0  0
 19 20  1  0  0  0  0
 20 21  4  0  0  0  0
 21 22  4  0  0  0  0
 22 23  4  0  0  0  0
 23 24  1  0  0  0  0
 24 25  1  0  0  0  0
 23 26  4  0  0  0  0
 26 27  1  0  0  0  0
 27 28  1  0  0  0  0
 20 29  4  0  0  0  0
 26 29  4  0  0  0  0
 17 30  1  0  0  0  0
  3 31  1  0  0  0  0
 31 32  1  0  0  0  0
 31 33  2  0  0  0  0
  5 34  1  0  0  0  0
  8 35  1  0  0  0  0
  8 36  1  0  0  0  0
  8 37  1  0  0  0  0
 11 38  1  0  0  0  0
 11 39  1  0  0  0  0
 11 40  1  0  0  0  0
 12 41  1  0  0  0  0
 13 42  1  0  0  0  0
 14 43  1  0  0  0  0
 14 44  1  0  0  0  0
 15 45  1  0  0  0  0
 15 46  1  0  0  0  0
  2 47  1  0  0  0  0
 16 48  1  0  0  0  0
 18 49  1  0  0  0  0
 18 50  1  0  0  0  0
 19 51  1  0  0  0  0
 19 52  1  0  0  0  0
 21 53  1  0  0  0  0
 22 54  1  0  0  0  0
 25 55  1  0  0  0  0
 25 56  1  0  0  0  0
 25 57  1  0  0  0  0
 28 58  1  0  0  0  0
 28 59  1  0  0  0  0
 28 60  1  0  0  0  0
 29 61  1  0  0  0  0
 30 62  1  0  0  0  0
 30 63  1  0  0  0  0
 30 64  1  0  0  0  0
 32 66  1  0  0  0  0
 32 67  1  0  0  0  0
 32 68  1  0  0  0  0
 33 69  1  0  0  0  0
 65 70  1  0  0  0  0
 33 71  1  0  0  0  0
  1 72  1  0  0  0  0
M  CHG  1   1   1
M  END
