 xtb: 6.6.1 (8d0f1dd)
          04062411133D

 72 72  0     0  0            999 V2000
   -1.5412    3.0676    1.8892 N   0  0  0  0  0  0  0  0  0  0  0  0
   -2.6507    2.6532    1.6582 C   0  0  0  0  0  0  0  0  0  0  0  0
   -3.7738    2.2325    1.1106 C   0  0  0  0  0  0  0  0  0  0  0  0
   -3.9446    0.8059    0.8571 C   0  0  0  0  0  0  0  0  0  0  0  0
   -4.8311    0.3300   -0.1166 C   0  0  0  0  0  0  0  0  0  0  0  0
   -4.9582   -1.0238   -0.3741 C   0  0  0  0  0  0  0  0  0  0  0  0
   -5.7635   -1.5672   -1.3082 O   0  0  0  0  0  0  0  0  0  0  0  0
   -6.5756   -0.7292   -2.0974 C   0  0  0  0  0  0  0  0  0  0  0  0
   -4.1935   -1.9592    0.3776 C   0  0  0  0  0  0  0  0  0  0  0  0
   -4.3911   -3.2551    0.0663 O   0  0  0  0  0  0  0  0  0  0  0  0
   -3.7218   -4.2487    0.8059 C   0  0  0  0  0  0  0  0  0  0  0  0
   -3.3186   -1.4834    1.3460 C   0  0  0  0  0  0  0  0  0  0  0  0
   -3.1882   -0.1256    1.5747 C   0  0  0  0  0  0  0  0  0  0  0  0
   -1.5077    1.7062   -2.4354 C   0  0  0  0  0  0  0  0  0  0  0  0
   -0.4595    0.7631   -2.0987 C   0  0  0  0  0  0  0  0  0  0  0  0
   -0.3785    0.5503   -0.5286 C   0  0  0  0  0  0  0  0  0  0  0  0
    0.4930   -0.4850   -0.1014 N   0  0  0  0  0  0  0  0  0  0  0  0
    1.8982   -0.2286    0.0589 C   0  0  0  0  0  0  0  0  0  0  0  0
    2.7804   -0.4813   -1.1873 C   0  0  0  0  0  0  0  0  0  0  0  0
    4.2207   -0.2369   -0.8499 C   0  0  0  0  0  0  0  0  0  0  0  0
    4.8055    1.0021   -1.0706 C   0  0  0  0  0  0  0  0  0  0  0  0
    6.1334    1.2309   -0.7478 C   0  0  0  0  0  0  0  0  0  0  0  0
    6.9081    0.2241   -0.1873 C   0  0  0  0  0  0  0  0  0  0  0  0
    8.2046    0.3275    0.1550 O   0  0  0  0  0  0  0  0  0  0  0  0
    8.8902    1.5333   -0.0931 C   0  0  0  0  0  0  0  0  0  0  0  0
    6.3141   -1.0466    0.0589 C   0  0  0  0  0  0  0  0  0  0  0  0
    7.1335   -1.9629    0.6085 O   0  0  0  0  0  0  0  0  0  0  0  0
    6.6459   -3.2569    0.8723 C   0  0  0  0  0  0  0  0  0  0  0  0
    4.9844   -1.2508   -0.2756 C   0  0  0  0  0  0  0  0  0  0  0  0
    0.1121   -1.8293   -0.4381 C   0  0  0  0  0  0  0  0  0  0  0  0
   -4.9036    3.2243    0.9008 C   0  0  0  0  0  0  0  0  0  0  0  0
   -5.8711    3.1227    2.0837 C   0  0  0  0  0  0  0  0  0  0  0  0
   -4.3886    4.6511    0.7373 C   0  0  0  0  0  0  0  0  0  0  0  0
   -5.4139    1.0298   -0.6916 H   0  0  0  0  0  0  0  0  0  0  0  0
   -7.2816   -0.1603   -1.4852 H   0  0  0  0  0  0  0  0  0  0  0  0
   -7.1276   -1.3966   -2.7563 H   0  0  0  0  0  0  0  0  0  0  0  0
   -5.9756   -0.0411   -2.7016 H   0  0  0  0  0  0  0  0  0  0  0  0
   -3.9775   -4.1978    1.8686 H   0  0  0  0  0  0  0  0  0  0  0  0
   -4.0643   -5.1976    0.3979 H   0  0  0  0  0  0  0  0  0  0  0  0
   -2.6356   -4.1757    0.6883 H   0  0  0  0  0  0  0  0  0  0  0  0
   -2.7368   -2.1702    1.9393 H   0  0  0  0  0  0  0  0  0  0  0  0
   -2.5064    0.2168    2.3382 H   0  0  0  0  0  0  0  0  0  0  0  0
   -2.5378    1.4273   -2.3107 H   0  0  0  0  0  0  0  0  0  0  0  0
   -1.2890    2.7279   -2.6790 H   0  0  0  0  0  0  0  0  0  0  0  0
   -0.6774   -0.2243   -2.5161 H   0  0  0  0  0  0  0  0  0  0  0  0
    0.5111    1.1079   -2.4511 H   0  0  0  0  0  0  0  0  0  0  0  0
   -1.3890    0.3139   -0.1859 H   0  0  0  0  0  0  0  0  0  0  0  0
   -0.0683    1.4924   -0.0759 H   0  0  0  0  0  0  0  0  0  0  0  0
    2.2633   -0.8748    0.8648 H   0  0  0  0  0  0  0  0  0  0  0  0
    2.0233    0.8083    0.3766 H   0  0  0  0  0  0  0  0  0  0  0  0
    2.4736    0.1841   -1.9938 H   0  0  0  0  0  0  0  0  0  0  0  0
    2.6472   -1.5125   -1.5159 H   0  0  0  0  0  0  0  0  0  0  0  0
    4.2267    1.8000   -1.5102 H   0  0  0  0  0  0  0  0  0  0  0  0
    6.5611    2.2012   -0.9408 H   0  0  0  0  0  0  0  0  0  0  0  0
    8.4609    2.3631    0.4764 H   0  0  0  0  0  0  0  0  0  0  0  0
    8.8891    1.7817   -1.1586 H   0  0  0  0  0  0  0  0  0  0  0  0
    9.9130    1.3607    0.2365 H   0  0  0  0  0  0  0  0  0  0  0  0
    7.4861   -3.8056    1.2936 H   0  0  0  0  0  0  0  0  0  0  0  0
    5.8269   -3.2362    1.5982 H   0  0  0  0  0  0  0  0  0  0  0  0
    6.3117   -3.7540   -0.0436 H   0  0  0  0  0  0  0  0  0  0  0  0
    4.5280   -2.2132   -0.1043 H   0  0  0  0  0  0  0  0  0  0  0  0
    0.2718   -2.0707   -1.4972 H   0  0  0  0  0  0  0  0  0  0  0  0
   -0.9465   -1.9636   -0.2151 H   0  0  0  0  0  0  0  0  0  0  0  0
    0.6933   -2.5277    0.1623 H   0  0  0  0  0  0  0  0  0  0  0  0
   -5.4417    2.9498   -0.0108 H   0  0  0  0  0  0  0  0  0  0  0  0
   -5.3742    3.4188    3.0053 H   0  0  0  0  0  0  0  0  0  0  0  0
   -6.2343    2.1040    2.1990 H   0  0  0  0  0  0  0  0  0  0  0  0
   -6.7227    3.7799    1.9272 H   0  0  0  0  0  0  0  0  0  0  0  0
   -3.8912    4.9924    1.6426 H   0  0  0  0  0  0  0  0  0  0  0  0
   -3.6826    4.7142   -0.0880 H   0  0  0  0  0  0  0  0  0  0  0  0
   -5.2195    5.3221    0.5326 H   0  0  0  0  0  0  0  0  0  0  0  0
   -1.1502    3.2360    2.8042 H   0  0  0  0  0  0  0  0  0  0  0  0
  1  2  2  0  0  0  0
  2  3  2  0  0  0  0
  3  4  1  0  0  0  0
  4  5  4  0  0  0  0
  5  6  4  0  0  0  0
  6  7  1  0  0  0  0
  7  8  1  0  0  0  0
  6  9  4  0  0  0  0
  9 10  1  0  0  0  0
 10 11  1  0  0  0  0
  9 12  4  0  0  0  0
  4 13  4  0  0  0  0
 12 13  4  0  0  0  0
 14 15  1  0  0  0  0
 15 16  1  0  0  0  0
 16 17  1  0  0  0  0
 17 18  1  0  0  0  0
 18 19  1  0  0  0  0
 19 20  1  0  0  0  0
 20 21  4  0  0  0  0
 21 22  4  0  0  0  0
 22 23  4  0  0  0  0
 23 24  1  0  0  0  0
 24 25  1  0  0  0  0
 23 26  4  0  0  0  0
 26 27  1  0  0  0  0
 27 28  1  0  0  0  0
 20 29  4  0  0  0  0
 26 29  4  0  0  0  0
 17 30  1  0  0  0  0
  3 31  1  0  0  0  0
 31 32  1  0  0  0  0
 31 33  1  0  0  0  0
  5 34  1  0  0  0  0
  8 35  1  0  0  0  0
  8 36  1  0  0  0  0
  8 37  1  0  0  0  0
 11 38  1  0  0  0  0
 11 39  1  0  0  0  0
 11 40  1  0  0  0  0
 12 41  1  0  0  0  0
 13 42  1  0  0  0  0
 14 43  1  0  0  0  0
 14 44  1  0  0  0  0
 15 45  1  0  0  0  0
 15 46  1  0  0  0  0
 16 47  1  0  0  0  0
 16 48  1  0  0  0  0
 18 49  1  0  0  0  0
 18 50  1  0  0  0  0
 19 51  1  0  0  0  0
 19 52  1  0  0  0  0
 21 53  1  0  0  0  0
 22 54  1  0  0  0  0
 25 55  1  0  0  0  0
 25 56  1  0  0  0  0
 25 57  1  0  0  0  0
 28 58  1  0  0  0  0
 28 59  1  0  0  0  0
 28 60  1  0  0  0  0
 29 61  1  0  0  0  0
 30 62  1  0  0  0  0
 30 63  1  0  0  0  0
 30 64  1  0  0  0  0
 31 65  1  0  0  0  0
 32 66  1  0  0  0  0
 32 67  1  0  0  0  0
 32 68  1  0  0  0  0
 33 69  1  0  0  0  0
 33 70  1  0  0  0  0
 33 71  1  0  0  0  0
  1 72  1  0  0  0  0
M  CHG  1   1   1
M  END
