 xtb: 6.6.1 (8d0f1dd)
          06052420003D

 25 26  0     0  0            999 V2000
    3.2484    1.2194    0.3133 C   0  0  0  0  0  0  0  0  0  0  0  0
    2.2553    0.2399    0.0035 N   0  0  0  0  0  0  0  0  0  0  0  0
    2.1780   -0.9782    0.7680 C   0  0  0  0  0  0  0  0  0  0  0  0
    1.2496   -1.8914    0.1242 N   0  0  0  0  0  0  0  0  0  0  0  0
    0.2728   -0.9715    0.0771 C   0  0  0  0  0  0  0  0  0  0  0  0
    1.0645    0.0582    0.8118 C   0  0  0  0  0  0  0  0  0  0  0  0
   -1.6225    1.6609   -1.6800 C   0  0  0  0  0  0  0  0  0  0  0  0
   -1.7257    1.9469   -2.7878 O   0  0  0  0  0  0  0  0  0  0  0  0
   -1.4969    1.1653   -0.5301 N   0  0  0  0  0  0  0  0  0  0  0  0
   -1.2580    1.9442    0.6880 C   0  0  0  0  0  0  0  0  0  0  0  0
   -2.0007   -0.2513   -0.3784 C   0  0  0  0  0  0  0  0  0  0  0  0
   -3.1736   -0.4576   -0.4534 O   0  0  0  0  0  0  0  0  0  0  0  0
   -1.0150   -1.1949   -0.2546 N   0  0  0  0  0  0  0  0  0  0  0  0
   -1.4324   -2.5869   -0.4444 C   0  0  0  0  0  0  0  0  0  0  0  0
    3.4736    1.2807    1.3840 H   0  0  0  0  0  0  0  0  0  0  0  0
    4.1596    0.9590   -0.2257 H   0  0  0  0  0  0  0  0  0  0  0  0
    2.8978    2.1909   -0.0325 H   0  0  0  0  0  0  0  0  0  0  0  0
    2.9193   -1.3087    1.4703 H   0  0  0  0  0  0  0  0  0  0  0  0
   -1.0212    2.9720    0.4242 H   0  0  0  0  0  0  0  0  0  0  0  0
   -2.1494    1.9207    1.3144 H   0  0  0  0  0  0  0  0  0  0  0  0
   -0.4072    1.4881    1.2119 H   0  0  0  0  0  0  0  0  0  0  0  0
   -1.0635   -3.1976    0.3780 H   0  0  0  0  0  0  0  0  0  0  0  0
   -1.0487   -2.9657   -1.3920 H   0  0  0  0  0  0  0  0  0  0  0  0
   -2.5196   -2.6258   -0.4607 H   0  0  0  0  0  0  0  0  0  0  0  0
    1.3758   -2.7986   -0.2980 H   0  0  0  0  0  0  0  0  0  0  0  0
  1  2  1  0  0  0  0
  2  3  1  0  0  0  0
  3  4  1  0  0  0  0
  4  5  4  0  0  0  0
  2  6  1  0  0  0  0
  3  6  1  0  0  0  0
  5  6  1  0  0  0  0
  7  8  2  0  0  0  0
  7  9  2  0  0  0  0
  9 10  1  0  0  0  0
  9 11  1  0  0  0  0
 11 12  2  0  0  0  0
  5 13  4  0  0  0  0
 11 13  1  0  0  0  0
 13 14  1  0  0  0  0
  1 15  1  0  0  0  0
  1 16  1  0  0  0  0
  1 17  1  0  0  0  0
  3 18  1  0  0  0  0
 10 19  1  0  0  0  0
 10 20  1  0  0  0  0
 10 21  1  0  0  0  0
 14 22  1  0  0  0  0
 14 23  1  0  0  0  0
 14 24  1  0  0  0  0
  4 25  1  0  0  0  0
M  CHG  1   1   1
M  END
