 xtb: 6.6.1 (8d0f1dd)
          04062411163D

 72 73  0     0  0            999 V2000
   -1.8560    2.6613    2.2623 N   0  0  0  0  0  0  0  0  0  0  0  0
   -1.8069    2.0138    1.1943 C   0  0  0  0  0  0  0  0  0  0  0  0
   -2.9662    1.8219    0.2550 C   0  0  0  0  0  0  0  0  0  0  0  0
   -3.4719    0.3872    0.3539 C   0  0  0  0  0  0  0  0  0  0  0  0
   -4.4350   -0.0513   -0.6032 C   0  0  0  0  0  0  0  0  0  0  0  0
   -4.9718   -1.3200   -0.5524 C   0  0  0  0  0  0  0  0  0  0  0  0
   -5.8853   -1.8168   -1.4176 O   0  0  0  0  0  0  0  0  0  0  0  0
   -6.4537   -0.9607   -2.3831 C   0  0  0  0  0  0  0  0  0  0  0  0
   -4.5695   -2.2270    0.4614 C   0  0  0  0  0  0  0  0  0  0  0  0
   -5.1206   -3.4230    0.4514 O   0  0  0  0  0  0  0  0  0  0  0  0
   -4.9285   -4.3687    1.3199 C   0  0  0  0  0  0  0  0  0  0  0  0
   -3.6111   -1.8215    1.5370 C   0  0  0  0  0  0  0  0  0  0  0  0
   -3.0633   -0.4453    1.3380 C   0  0  0  0  0  0  0  0  0  0  0  0
   -2.4240    2.1097   -1.1677 C   0  0  0  0  0  0  0  0  0  0  0  0
   -1.4918    1.0199   -1.7280 C   0  0  0  0  0  0  0  0  0  0  0  0
   -0.1441    1.0312   -1.1149 C   0  0  0  0  0  0  0  0  0  0  0  0
    0.5367   -0.0436   -0.7204 N   0  0  0  0  0  0  0  0  0  0  0  0
    1.9167    0.0737   -0.3137 C   0  0  0  0  0  0  0  0  0  0  0  0
    2.8912   -0.3570   -1.4268 C   0  0  0  0  0  0  0  0  0  0  0  0
    4.3060   -0.1360   -0.9691 C   0  0  0  0  0  0  0  0  0  0  0  0
    4.9315    1.0823   -1.1736 C   0  0  0  0  0  0  0  0  0  0  0  0
    6.2227    1.3028   -0.7186 C   0  0  0  0  0  0  0  0  0  0  0  0
    6.9129    0.3074   -0.0431 C   0  0  0  0  0  0  0  0  0  0  0  0
    8.1657    0.4097    0.4420 O   0  0  0  0  0  0  0  0  0  0  0  0
    8.8802    1.6084    0.2486 C   0  0  0  0  0  0  0  0  0  0  0  0
    6.2781   -0.9457    0.1744 C   0  0  0  0  0  0  0  0  0  0  0  0
    7.0207   -1.8574    0.8367 O   0  0  0  0  0  0  0  0  0  0  0  0
    6.4874   -3.1379    1.0725 C   0  0  0  0  0  0  0  0  0  0  0  0
    4.9871   -1.1427   -0.2883 C   0  0  0  0  0  0  0  0  0  0  0  0
   -0.0483   -1.3617   -0.7346 C   0  0  0  0  0  0  0  0  0  0  0  0
   -4.1664    2.7678    0.5644 C   0  0  0  0  0  0  0  0  0  0  0  0
   -4.8229    2.4273    1.9006 C   0  0  0  0  0  0  0  0  0  0  0  0
   -3.7831    4.2451    0.5439 C   0  0  0  0  0  0  0  0  0  0  0  0
   -4.7589    0.6315   -1.3679 H   0  0  0  0  0  0  0  0  0  0  0  0
   -6.9295   -0.0937   -1.9159 H   0  0  0  0  0  0  0  0  0  0  0  0
   -7.2098   -1.5565   -2.8907 H   0  0  0  0  0  0  0  0  0  0  0  0
   -5.7098   -0.6251   -3.1120 H   0  0  0  0  0  0  0  0  0  0  0  0
   -4.2937   -4.2639    2.1814 H   0  0  0  0  0  0  0  0  0  0  0  0
   -5.4659   -5.2778    1.1318 H   0  0  0  0  0  0  0  0  0  0  0  0
   -2.7930   -2.5458    1.6256 H   0  0  0  0  0  0  0  0  0  0  0  0
   -4.1365   -1.8500    2.5103 H   0  0  0  0  0  0  0  0  0  0  0  0
   -2.3562   -0.1191    2.0841 H   0  0  0  0  0  0  0  0  0  0  0  0
   -3.2653    2.2208   -1.8507 H   0  0  0  0  0  0  0  0  0  0  0  0
   -1.8880    3.0594   -1.1532 H   0  0  0  0  0  0  0  0  0  0  0  0
   -1.9709    0.0466   -1.6370 H   0  0  0  0  0  0  0  0  0  0  0  0
   -1.3679    1.2308   -2.7985 H   0  0  0  0  0  0  0  0  0  0  0  0
   -0.8864    1.5373    0.8059 H   0  0  0  0  0  0  0  0  0  0  0  0
    0.3952    1.9666   -1.1167 H   0  0  0  0  0  0  0  0  0  0  0  0
    2.0835   -0.5453    0.5722 H   0  0  0  0  0  0  0  0  0  0  0  0
    2.1262    1.1118   -0.0472 H   0  0  0  0  0  0  0  0  0  0  0  0
    2.6900    0.2377   -2.3194 H   0  0  0  0  0  0  0  0  0  0  0  0
    2.7313   -1.4086   -1.6680 H   0  0  0  0  0  0  0  0  0  0  0  0
    4.4190    1.8713   -1.7029 H   0  0  0  0  0  0  0  0  0  0  0  0
    6.6856    2.2589   -0.8995 H   0  0  0  0  0  0  0  0  0  0  0  0
    8.3869    2.4530    0.7395 H   0  0  0  0  0  0  0  0  0  0  0  0
    9.0117    1.8294   -0.8149 H   0  0  0  0  0  0  0  0  0  0  0  0
    9.8540    1.4445    0.7060 H   0  0  0  0  0  0  0  0  0  0  0  0
    7.2677   -3.6875    1.5954 H   0  0  0  0  0  0  0  0  0  0  0  0
    5.5942   -3.0912    1.7042 H   0  0  0  0  0  0  0  0  0  0  0  0
    6.2481   -3.6522    0.1365 H   0  0  0  0  0  0  0  0  0  0  0  0
    4.4993   -2.0927   -0.1350 H   0  0  0  0  0  0  0  0  0  0  0  0
   -0.2103   -1.7127   -1.7563 H   0  0  0  0  0  0  0  0  0  0  0  0
   -1.0070   -1.3547   -0.2100 H   0  0  0  0  0  0  0  0  0  0  0  0
    0.6201   -2.0561   -0.2318 H   0  0  0  0  0  0  0  0  0  0  0  0
   -4.9071    2.6013   -0.2259 H   0  0  0  0  0  0  0  0  0  0  0  0
   -4.1101    2.5574    2.7080 H   0  0  0  0  0  0  0  0  0  0  0  0
   -5.1879    1.4035    1.9111 H   0  0  0  0  0  0  0  0  0  0  0  0
   -5.6659    3.0916    2.0704 H   0  0  0  0  0  0  0  0  0  0  0  0
   -3.0422    4.4531    1.3093 H   0  0  0  0  0  0  0  0  0  0  0  0
   -3.3955    4.5513   -0.4241 H   0  0  0  0  0  0  0  0  0  0  0  0
   -4.6650    4.8446    0.7534 H   0  0  0  0  0  0  0  0  0  0  0  0
   -0.9999    2.7417    2.8026 H   0  0  0  0  0  0  0  0  0  0  0  0
  1  2  2  0  0  0  0
  2  3  1  0  0  0  0
  3  4  1  0  0  0  0
  4  5  4  0  0  0  0
  5  6  4  0  0  0  0
  6  7  1  0  0  0  0
  7  8  1  0  0  0  0
  6  9  4  0  0  0  0
  9 10  1  0  0  0  0
 10 11  4  0  0  0  0
  9 12  1  0  0  0  0
  4 13  2  0  0  0  0
 12 13  1  0  0  0  0
  3 14  1  0  0  0  0
 14 15  1  0  0  0  0
 15 16  1  0  0  0  0
 16 17  4  0  0  0  0
 17 18  1  0  0  0  0
 18 19  1  0  0  0  0
 19 20  1  0  0  0  0
 20 21  4  0  0  0  0
 21 22  4  0  0  0  0
 22 23  4  0  0  0  0
 23 24  1  0  0  0  0
 24 25  1  0  0  0  0
 23 26  4  0  0  0  0
 26 27  1  0  0  0  0
 27 28  1  0  0  0  0
 20 29  4  0  0  0  0
 26 29  4  0  0  0  0
 17 30  1  0  0  0  0
  3 31  1  0  0  0  0
 31 32  1  0  0  0  0
 31 33  1  0  0  0  0
  5 34  1  0  0  0  0
  8 35  1  0  0  0  0
  8 36  1  0  0  0  0
  8 37  1  0  0  0  0
 11 38  1  0  0  0  0
 11 39  1  0  0  0  0
 12 40  1  0  0  0  0
 12 41  1  0  0  0  0
 13 42  1  0  0  0  0
 14 43  1  0  0  0  0
 14 44  1  0  0  0  0
 15 45  1  0  0  0  0
 15 46  1  0  0  0  0
  2 47  1  0  0  0  0
 16 48  1  0  0  0  0
 18 49  1  0  0  0  0
 18 50  1  0  0  0  0
 19 51  1  0  0  0  0
 19 52  1  0  0  0  0
 21 53  1  0  0  0  0
 22 54  1  0  0  0  0
 25 55  1  0  0  0  0
 25 56  1  0  0  0  0
 25 57  1  0  0  0  0
 28 58  1  0  0  0  0
 28 59  1  0  0  0  0
 28 60  1  0  0  0  0
 29 61  1  0  0  0  0
 30 62  1  0  0  0  0
 30 63  1  0  0  0  0
 30 64  1  0  0  0  0
 31 65  1  0  0  0  0
 32 66  1  0  0  0  0
 32 67  1  0  0  0  0
 32 68  1  0  0  0  0
 33 69  1  0  0  0  0
 33 70  1  0  0  0  0
 33 71  1  0  0  0  0
  1 72  1  0  0  0  0
M  CHG  1   1   1
M  END
