 xtb: 6.6.1 (8d0f1dd)
          04062411153D

 72 73  0     0  0            999 V2000
   -1.8678    2.7784    2.2218 N   0  0  0  0  0  0  0  0  0  0  0  0
   -1.8267    2.1137    1.1658 C   0  0  0  0  0  0  0  0  0  0  0  0
   -2.9848    1.9104    0.2290 C   0  0  0  0  0  0  0  0  0  0  0  0
   -3.4661    0.4688    0.3138 C   0  0  0  0  0  0  0  0  0  0  0  0
   -4.4243    0.0044   -0.5897 C   0  0  0  0  0  0  0  0  0  0  0  0
   -4.9007   -1.2948   -0.5357 C   0  0  0  0  0  0  0  0  0  0  0  0
   -5.8321   -1.8199   -1.3577 O   0  0  0  0  0  0  0  0  0  0  0  0
   -6.4689   -0.9914   -2.3017 C   0  0  0  0  0  0  0  0  0  0  0  0
   -4.3951   -2.1856    0.4498 C   0  0  0  0  0  0  0  0  0  0  0  0
   -4.9062   -3.4325    0.4209 O   0  0  0  0  0  0  0  0  0  0  0  0
   -4.5168   -4.3555    1.4109 C   0  0  0  0  0  0  0  0  0  0  0  0
   -3.4456   -1.7183    1.3438 C   0  0  0  0  0  0  0  0  0  0  0  0
   -2.9906   -0.4068    1.2774 C   0  0  0  0  0  0  0  0  0  0  0  0
   -2.4395    2.1923   -1.1950 C   0  0  0  0  0  0  0  0  0  0  0  0
   -1.4932    1.1053   -1.7389 C   0  0  0  0  0  0  0  0  0  0  0  0
   -0.1615    1.1001   -1.0919 C   0  0  0  0  0  0  0  0  0  0  0  0
    0.4949    0.0202   -0.6829 N   0  0  0  0  0  0  0  0  0  0  0  0
    1.8720    0.1189   -0.2599 C   0  0  0  0  0  0  0  0  0  0  0  0
    2.8431   -0.3355   -1.3662 C   0  0  0  0  0  0  0  0  0  0  0  0
    4.2627   -0.1322   -0.9159 C   0  0  0  0  0  0  0  0  0  0  0  0
    4.9028    1.0777   -1.1293 C   0  0  0  0  0  0  0  0  0  0  0  0
    6.2033    1.2794   -0.6941 C   0  0  0  0  0  0  0  0  0  0  0  0
    6.8893    0.2730   -0.0292 C   0  0  0  0  0  0  0  0  0  0  0  0
    8.1508    0.3560    0.4333 O   0  0  0  0  0  0  0  0  0  0  0  0
    8.8876    1.5377    0.2182 C   0  0  0  0  0  0  0  0  0  0  0  0
    6.2387   -0.9713    0.1993 C   0  0  0  0  0  0  0  0  0  0  0  0
    6.9778   -1.8935    0.8469 O   0  0  0  0  0  0  0  0  0  0  0  0
    6.4320   -3.1677    1.0913 C   0  0  0  0  0  0  0  0  0  0  0  0
    4.9374   -1.1487   -0.2440 C   0  0  0  0  0  0  0  0  0  0  0  0
   -0.1044   -1.2925   -0.6971 C   0  0  0  0  0  0  0  0  0  0  0  0
   -4.1873    2.8515    0.5375 C   0  0  0  0  0  0  0  0  0  0  0  0
   -4.8167    2.5237    1.8895 C   0  0  0  0  0  0  0  0  0  0  0  0
   -3.8186    4.3315    0.4840 C   0  0  0  0  0  0  0  0  0  0  0  0
   -4.8161    0.6740   -1.3371 H   0  0  0  0  0  0  0  0  0  0  0  0
   -6.9765   -0.1504   -1.8197 H   0  0  0  0  0  0  0  0  0  0  0  0
   -7.2068   -1.6232   -2.7923 H   0  0  0  0  0  0  0  0  0  0  0  0
   -5.7633   -0.6151   -3.0495 H   0  0  0  0  0  0  0  0  0  0  0  0
   -4.7565   -3.9919    2.4144 H   0  0  0  0  0  0  0  0  0  0  0  0
   -5.0882   -5.2592    1.2086 H   0  0  0  0  0  0  0  0  0  0  0  0
   -3.4475   -4.5825    1.3497 H   0  0  0  0  0  0  0  0  0  0  0  0
   -3.0574   -2.3656    2.1134 H   0  0  0  0  0  0  0  0  0  0  0  0
   -2.2751   -0.0708    2.0120 H   0  0  0  0  0  0  0  0  0  0  0  0
   -3.2811    2.2785   -1.8812 H   0  0  0  0  0  0  0  0  0  0  0  0
   -1.9175    3.1498   -1.1914 H   0  0  0  0  0  0  0  0  0  0  0  0
   -1.9778    0.1328   -1.6727 H   0  0  0  0  0  0  0  0  0  0  0  0
   -1.3369    1.3301   -2.8019 H   0  0  0  0  0  0  0  0  0  0  0  0
   -0.9064    1.6326    0.7787 H   0  0  0  0  0  0  0  0  0  0  0  0
    0.3928    2.0276   -1.0920 H   0  0  0  0  0  0  0  0  0  0  0  0
    2.0197   -0.4984    0.6303 H   0  0  0  0  0  0  0  0  0  0  0  0
    2.0967    1.1548    0.0029 H   0  0  0  0  0  0  0  0  0  0  0  0
    2.6501    0.2537   -2.2644 H   0  0  0  0  0  0  0  0  0  0  0  0
    2.6676   -1.3866   -1.5977 H   0  0  0  0  0  0  0  0  0  0  0  0
    4.3939    1.8735   -1.6518 H   0  0  0  0  0  0  0  0  0  0  0  0
    6.6785    2.2280   -0.8822 H   0  0  0  0  0  0  0  0  0  0  0  0
    8.4061    2.3892    0.7105 H   0  0  0  0  0  0  0  0  0  0  0  0
    8.9976    1.7554   -0.8477 H   0  0  0  0  0  0  0  0  0  0  0  0
    9.8622    1.3588    0.6693 H   0  0  0  0  0  0  0  0  0  0  0  0
    7.2156   -3.7291    1.5963 H   0  0  0  0  0  0  0  0  0  0  0  0
    5.5532   -3.1099    1.7418 H   0  0  0  0  0  0  0  0  0  0  0  0
    6.1661   -3.6763    0.1595 H   0  0  0  0  0  0  0  0  0  0  0  0
    4.4375   -2.0910   -0.0831 H   0  0  0  0  0  0  0  0  0  0  0  0
   -0.2593   -1.6457   -1.7188 H   0  0  0  0  0  0  0  0  0  0  0  0
   -1.0676   -1.2776   -0.1806 H   0  0  0  0  0  0  0  0  0  0  0  0
    0.5521   -1.9911   -0.1848 H   0  0  0  0  0  0  0  0  0  0  0  0
   -4.9380    2.6631   -0.2382 H   0  0  0  0  0  0  0  0  0  0  0  0
   -4.1041    2.7105    2.6863 H   0  0  0  0  0  0  0  0  0  0  0  0
   -5.1321    1.4841    1.9345 H   0  0  0  0  0  0  0  0  0  0  0  0
   -5.6880    3.1535    2.0486 H   0  0  0  0  0  0  0  0  0  0  0  0
   -3.0457    4.5563    1.2126 H   0  0  0  0  0  0  0  0  0  0  0  0
   -3.4789    4.6301   -0.5043 H   0  0  0  0  0  0  0  0  0  0  0  0
   -4.6952    4.9259    0.7275 H   0  0  0  0  0  0  0  0  0  0  0  0
   -1.0132    2.8693    2.7618 H   0  0  0  0  0  0  0  0  0  0  0  0
  1  2  2  0  0  0  0
  2  3  1  0  0  0  0
  3  4  1  0  0  0  0
  4  5  4  0  0  0  0
  5  6  4  0  0  0  0
  6  7  1  0  0  0  0
  7  8  1  0  0  0  0
  6  9  4  0  0  0  0
  9 10  1  0  0  0  0
 10 11  1  0  0  0  0
  9 12  4  0  0  0  0
  4 13  4  0  0  0  0
 12 13  4  0  0  0  0
  3 14  1  0  0  0  0
 14 15  1  0  0  0  0
 15 16  1  0  0  0  0
 16 17  4  0  0  0  0
 17 18  1  0  0  0  0
 18 19  1  0  0  0  0
 19 20  1  0  0  0  0
 20 21  4  0  0  0  0
 21 22  4  0  0  0  0
 22 23  4  0  0  0  0
 23 24  1  0  0  0  0
 24 25  1  0  0  0  0
 23 26  4  0  0  0  0
 26 27  1  0  0  0  0
 27 28  1  0  0  0  0
 20 29  4  0  0  0  0
 26 29  4  0  0  0  0
 17 30  1  0  0  0  0
  3 31  1  0  0  0  0
 31 32  1  0  0  0  0
 31 33  1  0  0  0  0
  5 34  1  0  0  0  0
  8 35  1  0  0  0  0
  8 36  1  0  0  0  0
  8 37  1  0  0  0  0
 11 38  1  0  0  0  0
 11 39  1  0  0  0  0
 11 40  1  0  0  0  0
 12 41  1  0  0  0  0
 13 42  1  0  0  0  0
 14 43  1  0  0  0  0
 14 44  1  0  0  0  0
 15 45  1  0  0  0  0
 15 46  1  0  0  0  0
  2 47  1  0  0  0  0
 16 48  1  0  0  0  0
 18 49  1  0  0  0  0
 18 50  1  0  0  0  0
 19 51  1  0  0  0  0
 19 52  1  0  0  0  0
 21 53  1  0  0  0  0
 22 54  1  0  0  0  0
 25 55  1  0  0  0  0
 25 56  1  0  0  0  0
 25 57  1  0  0  0  0
 28 58  1  0  0  0  0
 28 59  1  0  0  0  0
 28 60  1  0  0  0  0
 29 61  1  0  0  0  0
 30 62  1  0  0  0  0
 30 63  1  0  0  0  0
 30 64  1  0  0  0  0
 31 65  1  0  0  0  0
 32 66  1  0  0  0  0
 32 67  1  0  0  0  0
 32 68  1  0  0  0  0
 33 69  1  0  0  0  0
 33 70  1  0  0  0  0
 33 71  1  0  0  0  0
  1 72  1  0  0  0  0
M  CHG  1   1   1
M  END
