          50
 
N             -2.01041492        2.80486950        2.70609664
C             -1.89312118        2.10067592        1.68070422
C             -2.92334580        2.01708403        0.58663755
C             -3.46382188        0.59879574        0.50473887
C             -4.31711335        0.24277065       -0.54187023
C             -4.85010463       -1.03180811       -0.64140905
O             -5.69876577       -1.44841879       -1.60297017
C             -6.22423618       -0.50960228       -2.51261136
C             -4.50194754       -2.01396602        0.32635043
O             -5.04541973       -3.23210648        0.13676845
C             -4.80566487       -4.24670434        1.08390482
C             -3.66006777       -1.65254944        1.36651168
C             -3.15595197       -0.36099555        1.45765310
C             -2.18238213        2.38581166       -0.72840842
C             -1.28949140        1.27720931       -1.31481103
C             -0.06127126        1.02420947       -0.51893842
N              0.42713920       -0.16847266       -0.19738674
C              1.56477531       -0.33244558        0.46484292
C             -0.31871759       -1.36287623       -0.55916415
C             -4.12490508        2.98465594        0.80265704
C             -4.91720917        2.62113900        2.05603982
C             -3.71433614        4.45338336        0.85893035
H             -4.57766855        0.97947943       -1.28371176
H             -6.73351170        0.30767771       -1.99295811
H             -6.94569242       -1.05884678       -3.11463467
H             -5.44637454       -0.10157198       -3.16636908
H             -5.16234985       -3.96033310        2.07773433
H             -5.36734321       -5.11063634        0.73405180
H             -3.74264181       -4.50355505        1.13697918
H             -3.39892671       -2.36854439        2.12893279
H             -2.53241097       -0.11069183        2.30174258
H             -2.92556450        2.64815540       -1.48127415
H             -1.57181596        3.27107011       -0.54645886
H             -1.88099315        0.37329177       -1.44545216
H             -0.98566294        1.62089751       -2.31234518
H             -0.99526651        1.50429829        1.44722458
H              0.56147461        1.87343791       -0.28210077
H              1.90570296       -1.31374458        0.71712543
H              2.15585940        0.52325144        0.72779510
H             -0.42364492       -1.42345728       -1.64172492
H             -1.31017220       -1.34528619       -0.10282926
H              0.21193647       -2.24470899       -0.20895862
H             -4.78713936        2.85469872       -0.06118681
H             -4.30674467        2.77615777        2.94014705
H             -5.24278498        1.58375529        2.02902373
H             -5.79739793        3.25487540        2.12800275
H             -3.03279422        4.62279379        1.68682801
H             -3.24418918        4.77890513       -0.06506752
H             -4.59935580        5.06466078        1.01628941
H             -1.23934110        2.81641337        3.36626316
