 xtb: 6.6.1 (8d0f1dd)
          06052419583D

 25 26  0     0  0            999 V2000
    3.7841    0.9251    0.1301 C   0  0  0  0  0  0  0  0  0  0  0  0
    2.7026   -0.0137   -0.0031 N   0  0  0  0  0  0  0  0  0  0  0  0
    2.7737   -1.2935   -0.3517 C   0  0  0  0  0  0  0  0  0  0  0  0
    1.5549   -1.8333   -0.3631 N   0  0  0  0  0  0  0  0  0  0  0  0
    0.6350   -0.8781    0.0200 C   0  0  0  0  0  0  0  0  0  0  0  0
    1.3551    0.3397    0.2557 C   0  0  0  0  0  0  0  0  0  0  0  0
   -1.4712   -0.0890    0.8310 C   0  0  0  0  0  0  0  0  0  0  0  0
    0.9862    1.4541    0.5673 O   0  0  0  0  0  0  0  0  0  0  0  0
   -2.5255    0.5860    0.1061 N   0  0  0  0  0  0  0  0  0  0  0  0
   -2.6875    1.8491   -0.5501 C   0  0  0  0  0  0  0  0  0  0  0  0
   -2.9729   -0.2311    1.0234 C   0  0  0  0  0  0  0  0  0  0  0  0
   -3.8423   -0.7951    1.5841 O   0  0  0  0  0  0  0  0  0  0  0  0
   -0.7173   -1.0672    0.0779 N   0  0  0  0  0  0  0  0  0  0  0  0
   -1.3456   -2.0591   -0.5086 C   0  0  0  0  0  0  0  0  0  0  0  0
    4.3697    0.7117    1.0254 H   0  0  0  0  0  0  0  0  0  0  0  0
    4.4342    0.8891   -0.7426 H   0  0  0  0  0  0  0  0  0  0  0  0
    3.3423    1.9174    0.2239 H   0  0  0  0  0  0  0  0  0  0  0  0
    3.6775   -1.8192   -0.5954 H   0  0  0  0  0  0  0  0  0  0  0  0
   -1.7164    2.3411   -0.5980 H   0  0  0  0  0  0  0  0  0  0  0  0
   -3.0650    1.6847   -1.5608 H   0  0  0  0  0  0  0  0  0  0  0  0
   -3.3910    2.4764   -0.0038 H   0  0  0  0  0  0  0  0  0  0  0  0
   -0.8576    0.4592    1.5310 H   0  0  0  0  0  0  0  0  0  0  0  0
   -0.8158   -2.7441   -1.1424 H   0  0  0  0  0  0  0  0  0  0  0  0
   -2.4010   -2.1885   -0.3676 H   0  0  0  0  0  0  0  0  0  0  0  0
    1.3541   -2.8032   -0.5578 H   0  0  0  0  0  0  0  0  0  0  0  0
  1  2  1  0  0  0  0
  2  3  4  0  0  0  0
  3  4  4  0  0  0  0
  4  5  1  0  0  0  0
  2  6  1  0  0  0  0
  5  6  1  0  0  0  0
  6  8  2  0  0  0  0
  7  9  1  0  0  0  0
  9 10  1  0  0  0  0
  7 11  1  0  0  0  0
  9 11  4  0  0  0  0
 11 12  2  0  0  0  0
  5 13  1  0  0  0  0
  7 13  1  0  0  0  0
 13 14  4  0  0  0  0
  1 15  1  0  0  0  0
  1 16  1  0  0  0  0
  1 17  1  0  0  0  0
  3 18  1  0  0  0  0
 10 19  1  0  0  0  0
 10 20  1  0  0  0  0
 10 21  1  0  0  0  0
  7 22  1  0  0  0  0
 14 23  1  0  0  0  0
 14 24  1  0  0  0  0
  4 25  1  0  0  0  0
M  CHG  1   1   1
M  END
