           5
 
C             -2.74784876        4.11155277       -0.38472913
O             -2.66922724        2.87255920       -0.12131397
H             -1.71133933        2.51000817        0.06400399
H             -3.73674514        4.50683277       -0.58766646
H             -1.88379593        4.76198125       -0.44152347
