 xtb: 6.6.1 (8d0f1dd)
          04062411143D

 72 73  0     0  0            999 V2000
   -2.1084    2.9486    2.0487 N   0  0  0  0  0  0  0  0  0  0  0  0
   -1.8351    2.1541    1.1173 C   0  0  0  0  0  0  0  0  0  0  0  0
   -2.9322    1.8788    0.1099 C   0  0  0  0  0  0  0  0  0  0  0  0
   -3.4486    0.4567    0.2099 C   0  0  0  0  0  0  0  0  0  0  0  0
   -4.4718    0.0445   -0.6461 C   0  0  0  0  0  0  0  0  0  0  0  0
   -4.9961   -1.2349   -0.5813 C   0  0  0  0  0  0  0  0  0  0  0  0
   -5.9806   -1.7150   -1.3674 O   0  0  0  0  0  0  0  0  0  0  0  0
   -6.5758   -0.8687   -2.3224 C   0  0  0  0  0  0  0  0  0  0  0  0
   -4.4847   -2.1506    0.3792 C   0  0  0  0  0  0  0  0  0  0  0  0
   -5.0489   -3.3747    0.3696 O   0  0  0  0  0  0  0  0  0  0  0  0
   -4.6418   -4.3243    1.3266 C   0  0  0  0  0  0  0  0  0  0  0  0
   -3.4781   -1.7289    1.2326 C   0  0  0  0  0  0  0  0  0  0  0  0
   -2.9659   -0.4390    1.1494 C   0  0  0  0  0  0  0  0  0  0  0  0
   -2.4141    2.1643   -1.3133 C   0  0  0  0  0  0  0  0  0  0  0  0
   -1.4582    1.0805   -1.8492 C   0  0  0  0  0  0  0  0  0  0  0  0
   -0.1231    1.1148   -1.2194 C   0  0  0  0  0  0  0  0  0  0  0  0
    0.5175    0.0816   -0.6965 N   0  0  0  0  0  0  0  0  0  0  0  0
    1.8863    0.2175   -0.2551 C   0  0  0  0  0  0  0  0  0  0  0  0
    2.8770   -0.2959   -1.3182 C   0  0  0  0  0  0  0  0  0  0  0  0
    4.2915   -0.0951   -0.8512 C   0  0  0  0  0  0  0  0  0  0  0  0
    4.9318    1.1182   -1.0470 C   0  0  0  0  0  0  0  0  0  0  0  0
    6.2331    1.3124   -0.6119 C   0  0  0  0  0  0  0  0  0  0  0  0
    6.9220    0.2945    0.0325 C   0  0  0  0  0  0  0  0  0  0  0  0
    8.1880    0.3660    0.4821 O   0  0  0  0  0  0  0  0  0  0  0  0
    8.9321    1.5417    0.2585 C   0  0  0  0  0  0  0  0  0  0  0  0
    6.2687   -0.9504    0.2499 C   0  0  0  0  0  0  0  0  0  0  0  0
    7.0076   -1.8820    0.8837 O   0  0  0  0  0  0  0  0  0  0  0  0
    6.4583   -3.1567    1.1176 C   0  0  0  0  0  0  0  0  0  0  0  0
    4.9659   -1.1200   -0.1924 C   0  0  0  0  0  0  0  0  0  0  0  0
   -0.0500   -1.2452   -0.6737 C   0  0  0  0  0  0  0  0  0  0  0  0
   -4.0422    2.8634    0.6153 C   0  0  0  0  0  0  0  0  0  0  0  0
   -3.4588    3.4163    1.9448 C   0  0  0  0  0  0  0  0  0  0  0  0
   -4.4154    4.0025   -0.3261 C   0  0  0  0  0  0  0  0  0  0  0  0
   -4.8730    0.7463   -1.3590 H   0  0  0  0  0  0  0  0  0  0  0  0
   -7.0533   -0.0037   -1.8515 H   0  0  0  0  0  0  0  0  0  0  0  0
   -7.3345   -1.4734   -2.8153 H   0  0  0  0  0  0  0  0  0  0  0  0
   -5.8484   -0.5264   -3.0659 H   0  0  0  0  0  0  0  0  0  0  0  0
   -4.8094   -3.9647    2.3459 H   0  0  0  0  0  0  0  0  0  0  0  0
   -5.2595   -5.2022    1.1480 H   0  0  0  0  0  0  0  0  0  0  0  0
   -3.5878   -4.5921    1.2020 H   0  0  0  0  0  0  0  0  0  0  0  0
   -3.0851   -2.3959    1.9827 H   0  0  0  0  0  0  0  0  0  0  0  0
   -2.2033   -0.1361    1.8504 H   0  0  0  0  0  0  0  0  0  0  0  0
   -3.2579    2.2237   -1.9989 H   0  0  0  0  0  0  0  0  0  0  0  0
   -1.9056    3.1292   -1.3252 H   0  0  0  0  0  0  0  0  0  0  0  0
   -1.9274    0.1023   -1.7585 H   0  0  0  0  0  0  0  0  0  0  0  0
   -1.3208    1.2885   -2.9179 H   0  0  0  0  0  0  0  0  0  0  0  0
   -0.8519    1.7178    1.0372 H   0  0  0  0  0  0  0  0  0  0  0  0
    0.3969    2.0608   -1.2084 H   0  0  0  0  0  0  0  0  0  0  0  0
    2.0213   -0.3467    0.6712 H   0  0  0  0  0  0  0  0  0  0  0  0
    2.0987    1.2681   -0.0488 H   0  0  0  0  0  0  0  0  0  0  0  0
    2.7110    0.2561   -2.2451 H   0  0  0  0  0  0  0  0  0  0  0  0
    2.6933   -1.3539   -1.5086 H   0  0  0  0  0  0  0  0  0  0  0  0
    4.4225    1.9220   -1.5565 H   0  0  0  0  0  0  0  0  0  0  0  0
    6.7070    2.2645   -0.7851 H   0  0  0  0  0  0  0  0  0  0  0  0
    8.4963    2.3977    0.7826 H   0  0  0  0  0  0  0  0  0  0  0  0
    9.0116    1.7679   -0.8089 H   0  0  0  0  0  0  0  0  0  0  0  0
    9.9234    1.3403    0.6596 H   0  0  0  0  0  0  0  0  0  0  0  0
    7.2403   -3.7247    1.6176 H   0  0  0  0  0  0  0  0  0  0  0  0
    5.5798   -3.1021    1.7685 H   0  0  0  0  0  0  0  0  0  0  0  0
    6.1911   -3.6564    0.1812 H   0  0  0  0  0  0  0  0  0  0  0  0
    4.4657   -2.0639   -0.0422 H   0  0  0  0  0  0  0  0  0  0  0  0
   -0.1357   -1.6574   -1.6814 H   0  0  0  0  0  0  0  0  0  0  0  0
   -1.0420   -1.2278   -0.2163 H   0  0  0  0  0  0  0  0  0  0  0  0
    0.5896   -1.8978   -0.0851 H   0  0  0  0  0  0  0  0  0  0  0  0
   -4.9475    2.2893    0.8264 H   0  0  0  0  0  0  0  0  0  0  0  0
   -3.6415    0.6261    4.0808 H   0  0  0  0  0  0  0  0  0  0  0  0
   -4.0112    3.0610    2.8191 H   0  0  0  0  0  0  0  0  0  0  0  0
   -3.4533    4.5091    1.9800 H   0  0  0  0  0  0  0  0  0  0  0  0
   -3.5555    4.6182   -0.5702 H   0  0  0  0  0  0  0  0  0  0  0  0
   -4.8558    3.6343   -1.2493 H   0  0  0  0  0  0  0  0  0  0  0  0
   -5.1551    4.6335    0.1616 H   0  0  0  0  0  0  0  0  0  0  0  0
   -3.0764    1.0575    4.3982 H   0  0  0  0  0  0  0  0  0  0  0  0
  1  2  2  0  0  0  0
  2  3  1  0  0  0  0
  3  4  1  0  0  0  0
  4  5  4  0  0  0  0
  5  6  4  0  0  0  0
  6  7  1  0  0  0  0
  7  8  1  0  0  0  0
  6  9  4  0  0  0  0
  9 10  1  0  0  0  0
 10 11  1  0  0  0  0
  9 12  4  0  0  0  0
  4 13  4  0  0  0  0
 12 13  4  0  0  0  0
  3 14  1  0  0  0  0
 14 15  1  0  0  0  0
 15 16  1  0  0  0  0
 16 17  4  0  0  0  0
 17 18  1  0  0  0  0
 18 19  1  0  0  0  0
 19 20  1  0  0  0  0
 20 21  4  0  0  0  0
 21 22  4  0  0  0  0
 22 23  4  0  0  0  0
 23 24  1  0  0  0  0
 24 25  1  0  0  0  0
 23 26  4  0  0  0  0
 26 27  1  0  0  0  0
 27 28  1  0  0  0  0
 20 29  4  0  0  0  0
 26 29  4  0  0  0  0
 17 30  1  0  0  0  0
  3 31  1  0  0  0  0
  1 32  1  0  0  0  0
 31 32  1  0  0  0  0
 31 33  1  0  0  0  0
  5 34  1  0  0  0  0
  8 35  1  0  0  0  0
  8 36  1  0  0  0  0
  8 37  1  0  0  0  0
 11 38  1  0  0  0  0
 11 39  1  0  0  0  0
 11 40  1  0  0  0  0
 12 41  1  0  0  0  0
 13 42  1  0  0  0  0
 14 43  1  0  0  0  0
 14 44  1  0  0  0  0
 15 45  1  0  0  0  0
 15 46  1  0  0  0  0
  2 47  1  0  0  0  0
 16 48  1  0  0  0  0
 18 49  1  0  0  0  0
 18 50  1  0  0  0  0
 19 51  1  0  0  0  0
 19 52  1  0  0  0  0
 21 53  1  0  0  0  0
 22 54  1  0  0  0  0
 25 55  1  0  0  0  0
 25 56  1  0  0  0  0
 25 57  1  0  0  0  0
 28 58  1  0  0  0  0
 28 59  1  0  0  0  0
 28 60  1  0  0  0  0
 29 61  1  0  0  0  0
 30 62  1  0  0  0  0
 30 63  1  0  0  0  0
 30 64  1  0  0  0  0
 31 65  1  0  0  0  0
 32 67  1  0  0  0  0
 32 68  1  0  0  0  0
 33 69  1  0  0  0  0
 33 70  1  0  0  0  0
 33 71  1  0  0  0  0
 66 72  1  0  0  0  0
M  CHG  1   1   1
M  END
