          68
 
N             -1.71520009        2.82871280        2.46281849
C             -1.71229624        2.22843092        1.36902398
C             -2.87750360        2.16339273        0.42094031
C             -3.42506296        0.74697337        0.39093290
C             -4.40477992        0.39551370       -0.53998907
C             -4.90392393       -0.89035724       -0.62718540
O             -5.86081236       -1.29376453       -1.47251412
C             -6.51727105       -0.35546745       -2.29130173
C             -4.38505087       -1.95739208        0.23724926
O             -4.76042955       -3.13252226        0.13298445
C             -3.41551537       -1.52995378        1.20280046
C             -2.96620792       -0.23784471        1.27491446
C             -2.31456970        2.52793609       -0.97908422
C             -1.44962034        1.42931529       -1.62326662
C             -0.12323591        1.26554167       -0.98771289
N              0.45773501        0.10969166       -0.70581973
C              1.83817907        0.06804360       -0.28314597
C              2.77077765       -0.36521719       -1.43078174
C              4.20503963       -0.26251358       -0.99264843
C              4.89539038        0.93232033       -1.12505667
C              6.21089274        1.04356984       -0.70392759
C              6.86415074       -0.04114437       -0.13538245
O              8.13484358       -0.05044597        0.30300029
C              8.91664141        1.11546685        0.17714353
C              6.16204169       -1.27105441        0.00983368
O              6.87090592       -2.27037921        0.56715359
C              6.27702222       -3.53730264        0.72439557
C              4.84550592       -1.35675681       -0.41721429
C             -0.22381552       -1.15351521       -0.86301502
C             -4.02800305        3.14370281        0.80013651
C             -4.68639343        2.74211627        2.11733787
C             -3.57716034        4.59990430        0.86780927
H             -4.78965749        1.15257336       -1.20539854
H             -6.98469272        0.43456799       -1.69577787
H             -7.28757460       -0.91286792       -2.82055130
H             -5.83119719        0.09131033       -3.01832858
H             -3.05411690       -2.28437765        1.88436709
H             -2.25147978        0.02566550        2.04120223
H             -3.15023214        2.73097274       -1.64787072
H             -1.72737777        3.44322184       -0.89664305
H             -2.00349798        0.49251294       -1.64742413
H             -1.27252098        1.73981554       -2.66127967
H             -0.82615886        1.70634039        0.95489310
H              0.48808790        2.15112474       -0.88551317
H              1.93775428       -0.63039811        0.55193492
H              2.14137275        1.05887244        0.06166846
H              2.59863977        0.28977750       -2.28679767
H              2.53890101       -1.38873407       -1.72649979
H              4.41342187        1.78771629       -1.57368565
H              6.72389925        1.98294331       -0.82851987
H              8.49275898        1.94565282        0.75017312
H              9.02685387        1.41200296       -0.87014764
H              9.89250813        0.85765211        0.58392055
H              7.04595948       -4.16679188        1.16792363
H              5.41343178       -3.49508163        1.39567274
H              5.97381041       -3.96035710       -0.23817149
H              4.30773313       -2.28665254       -0.31847953
H             -0.40374492       -1.37657733       -1.91647140
H             -1.18209761       -1.14185285       -0.33785362
H              0.38763191       -1.94652467       -0.44092826
H             -4.78063156        3.06104761        0.00777541
H             -3.97293378        2.82426629        2.93110823
H             -5.05730185        1.72072634        2.07566115
H             -5.52395084        3.40329396        2.32311321
H             -2.81293897        4.72469578        1.62894857
H             -3.19485465        4.95250974       -0.08647929
H             -4.42616001        5.22298116        1.13590911
H             -0.86357339        2.82714968        3.01481826
