          24
 
C              3.23735172        1.13840899        0.02269627
N              2.28456110        0.06032331        0.00019426
C              2.54875269       -1.23774355        0.00154291
N              1.39833252       -1.94269429       -0.00452173
C              0.36063144       -1.05915795       -0.00757072
C              0.91481837        0.21579343       -0.00610005
C              0.11875697        1.40435742       -0.01976799
O              0.49950631        2.55384053       -0.04794340
N             -1.28601002        1.09084312        0.00500676
C             -2.14489133        2.11836892        0.00953776
C             -1.85333464       -0.21655571        0.00576220
O             -3.04137693       -0.37929387        0.02008533
N             -0.96629457       -1.29130414       -0.01184941
C             -1.50270836       -2.64117062       -0.02772948
H              3.74615084        1.17359359        0.98697246
H              3.98053283        1.00457306       -0.76229200
H              2.70615712        2.07773747       -0.13021088
H              3.52970564       -1.67080549        0.00958841
H             -1.72900994        3.11109525        0.03136767
H             -3.21655934        1.93472794        0.09557124
H             -1.17932851       -3.18945072        0.85701886
H             -1.19026046       -3.16267240       -0.93246804
H             -2.58894231       -2.56440854       -0.01979396
H              1.33206945       -2.95079677       -0.00634824
