          23
 
C              3.38519454        1.17684944       -0.00407360
N              2.43543190        0.09397689       -0.01202826
C              2.77156886       -1.19006304       -0.02536633
N              1.67287231       -1.95005370       -0.00390066
C              0.54181313       -1.11904453        0.02426162
C              1.07343367        0.20146675        0.01898642
C              0.32240463        1.46517270        0.01275484
O              0.88671003        2.56253361       -0.04548748
N             -0.98967543        1.28865459        0.07026129
C             -1.94392591        2.30142443        0.07430088
N             -0.69032767       -1.47077576        0.04522206
C             -1.16943236       -2.79735425        0.05469025
H              3.88811086        1.22576060        0.96271459
H              4.12969467        1.02633808       -0.78439456
H              2.85485797        2.11595113       -0.17081686
H              3.77969171       -1.55858892       -0.05307132
H             -1.49589649        3.30492041        0.03970866
H             -2.61467490        2.17339101       -0.78481235
H             -2.56363551        2.21172892        0.97414076
H             -0.82712213       -3.35002357        0.93786098
H             -0.86142104       -3.34916358       -0.84150578
H             -2.25818264       -2.75947455        0.07605593
H              1.65310160       -2.95924682       -0.00923887
