 xtb: 6.6.1 (8d0f1dd)
          04062411163D

 72 72  0     0  0            999 V2000
   -1.5051    3.0585    1.7901 N   0  0  0  0  0  0  0  0  0  0  0  0
   -1.8681    1.9905    1.2486 C   0  0  0  0  0  0  0  0  0  0  0  0
   -3.0757    1.8690    0.3585 C   0  0  0  0  0  0  0  0  0  0  0  0
   -3.8411    0.6121    0.7605 C   0  0  0  0  0  0  0  0  0  0  0  0
   -4.7805    0.0524   -0.2026 C   0  0  0  0  0  0  0  0  0  0  0  0
   -4.9475   -1.2709   -0.4358 C   0  0  0  0  0  0  0  0  0  0  0  0
   -5.9504   -1.8122   -1.1650 O   0  0  0  0  0  0  0  0  0  0  0  0
   -7.0119   -0.9876   -1.5909 C   0  0  0  0  0  0  0  0  0  0  0  0
   -3.9743   -2.2983    0.0260 C   0  0  0  0  0  0  0  0  0  0  0  0
   -2.7802   -2.0137    0.1624 O   0  0  0  0  0  0  0  0  0  0  0  0
   -3.7287   -4.6564    0.6076 C   0  0  0  0  0  0  0  0  0  0  0  0
   -4.5139   -3.6345    0.2507 C   0  0  0  0  0  0  0  0  0  0  0  0
   -3.7613    0.1075    1.9941 C   0  0  0  0  0  0  0  0  0  0  0  0
   -2.5469    1.7149   -1.0910 C   0  0  0  0  0  0  0  0  0  0  0  0
   -1.6825    0.4696   -1.3031 C   0  0  0  0  0  0  0  0  0  0  0  0
   -0.3002    0.6343   -0.8207 C   0  0  0  0  0  0  0  0  0  0  0  0
    0.5342   -0.3603   -0.6253 N   0  0  0  0  0  0  0  0  0  0  0  0
    1.8984   -0.1245   -0.2147 C   0  0  0  0  0  0  0  0  0  0  0  0
    2.8845   -0.2855   -1.3870 C   0  0  0  0  0  0  0  0  0  0  0  0
    4.2920   -0.0569   -0.9106 C   0  0  0  0  0  0  0  0  0  0  0  0
    4.9027    1.1778   -1.0562 C   0  0  0  0  0  0  0  0  0  0  0  0
    6.1955    1.3883   -0.6013 C   0  0  0  0  0  0  0  0  0  0  0  0
    6.9020    0.3670    0.0180 C   0  0  0  0  0  0  0  0  0  0  0  0
    8.1570    0.4550    0.4925 O   0  0  0  0  0  0  0  0  0  0  0  0
    8.8653    1.6650    0.3493 C   0  0  0  0  0  0  0  0  0  0  0  0
    6.2790   -0.9025    0.1815 C   0  0  0  0  0  0  0  0  0  0  0  0
    7.0329   -1.8353    0.7941 O   0  0  0  0  0  0  0  0  0  0  0  0
    6.5113   -3.1287    0.9859 C   0  0  0  0  0  0  0  0  0  0  0  0
    4.9874   -1.0893   -0.2846 C   0  0  0  0  0  0  0  0  0  0  0  0
    0.1597   -1.7252   -0.9052 C   0  0  0  0  0  0  0  0  0  0  0  0
   -4.0422    3.0884    0.4427 C   0  0  0  0  0  0  0  0  0  0  0  0
   -4.5578    3.3020    1.8637 C   0  0  0  0  0  0  0  0  0  0  0  0
   -3.4299    4.3900   -0.0715 C   0  0  0  0  0  0  0  0  0  0  0  0
   -5.4283    0.7631   -0.6964 H   0  0  0  0  0  0  0  0  0  0  0  0
   -7.4482   -0.4368   -0.7527 H   0  0  0  0  0  0  0  0  0  0  0  0
   -7.7558   -1.6599   -2.0143 H   0  0  0  0  0  0  0  0  0  0  0  0
   -6.6846   -0.2837   -2.3620 H   0  0  0  0  0  0  0  0  0  0  0  0
   -4.1204   -5.6416    0.7836 H   0  0  0  0  0  0  0  0  0  0  0  0
   -5.5729   -3.7523    0.1212 H   0  0  0  0  0  0  0  0  0  0  0  0
   -2.6647   -4.5186    0.7306 H   0  0  0  0  0  0  0  0  0  0  0  0
   -4.3510   -0.7437    2.2887 H   0  0  0  0  0  0  0  0  0  0  0  0
   -3.1257    0.5308    2.7518 H   0  0  0  0  0  0  0  0  0  0  0  0
   -3.4065    1.6622   -1.7594 H   0  0  0  0  0  0  0  0  0  0  0  0
   -1.9720    2.6031   -1.3534 H   0  0  0  0  0  0  0  0  0  0  0  0
   -2.1494   -0.3958   -0.8139 H   0  0  0  0  0  0  0  0  0  0  0  0
   -1.6548    0.2321   -2.3741 H   0  0  0  0  0  0  0  0  0  0  0  0
   -1.3210    1.0393    1.3476 H   0  0  0  0  0  0  0  0  0  0  0  0
    0.0763    1.6313   -0.6407 H   0  0  0  0  0  0  0  0  0  0  0  0
    2.1572   -0.8344    0.5757 H   0  0  0  0  0  0  0  0  0  0  0  0
    1.9884    0.8858    0.1896 H   0  0  0  0  0  0  0  0  0  0  0  0
    2.6319    0.4369   -2.1646 H   0  0  0  0  0  0  0  0  0  0  0  0
    2.7935   -1.2891   -1.8049 H   0  0  0  0  0  0  0  0  0  0  0  0
    4.3777    1.9871   -1.5401 H   0  0  0  0  0  0  0  0  0  0  0  0
    6.6479    2.3565   -0.7385 H   0  0  0  0  0  0  0  0  0  0  0  0
    8.3722    2.4834    0.8823 H   0  0  0  0  0  0  0  0  0  0  0  0
    8.9870    1.9347   -0.7039 H   0  0  0  0  0  0  0  0  0  0  0  0
    9.8433    1.4843    0.7912 H   0  0  0  0  0  0  0  0  0  0  0  0
    7.2999   -3.6909    1.4822 H   0  0  0  0  0  0  0  0  0  0  0  0
    5.6228   -3.1122    1.6252 H   0  0  0  0  0  0  0  0  0  0  0  0
    6.2695   -3.6095    0.0330 H   0  0  0  0  0  0  0  0  0  0  0  0
    4.5119   -2.0519   -0.1778 H   0  0  0  0  0  0  0  0  0  0  0  0
    0.0296   -1.8767   -1.9787 H   0  0  0  0  0  0  0  0  0  0  0  0
   -0.7823   -1.9745   -0.4128 H   0  0  0  0  0  0  0  0  0  0  0  0
    0.9334   -2.3972   -0.5446 H   0  0  0  0  0  0  0  0  0  0  0  0
   -4.9007    2.8494   -0.1959 H   0  0  0  0  0  0  0  0  0  0  0  0
   -3.7440    3.6107    2.5131 H   0  0  0  0  0  0  0  0  0  0  0  0
   -5.0052    2.3957    2.2644 H   0  0  0  0  0  0  0  0  0  0  0  0
   -5.3128    4.0837    1.8648 H   0  0  0  0  0  0  0  0  0  0  0  0
   -2.5101    4.6068    0.4622 H   0  0  0  0  0  0  0  0  0  0  0  0
   -3.2331    4.3552   -1.1396 H   0  0  0  0  0  0  0  0  0  0  0  0
   -4.1282    5.2036    0.1073 H   0  0  0  0  0  0  0  0  0  0  0  0
   -0.6679    3.0366    2.3642 H   0  0  0  0  0  0  0  0  0  0  0  0
  1  2  2  0  0  0  0
  2  3  1  0  0  0  0
  3  4  1  0  0  0  0
  4  5  1  0  0  0  0
  5  6  2  0  0  0  0
  6  7  1  0  0  0  0
  7  8  1  0  0  0  0
  6  9  1  0  0  0  0
  9 10  2  0  0  0  0
  9 12  1  0  0  0  0
 11 12  2  0  0  0  0
  4 13  2  0  0  0  0
  3 14  1  0  0  0  0
 14 15  1  0  0  0  0
 15 16  1  0  0  0  0
 16 17  4  0  0  0  0
 17 18  1  0  0  0  0
 18 19  1  0  0  0  0
 19 20  1  0  0  0  0
 20 21  4  0  0  0  0
 21 22  4  0  0  0  0
 22 23  4  0  0  0  0
 23 24  1  0  0  0  0
 24 25  1  0  0  0  0
 23 26  4  0  0  0  0
 26 27  1  0  0  0  0
 27 28  1  0  0  0  0
 20 29  4  0  0  0  0
 26 29  4  0  0  0  0
 17 30  1  0  0  0  0
  3 31  1  0  0  0  0
 31 32  1  0  0  0  0
 31 33  1  0  0  0  0
  5 34  1  0  0  0  0
  8 35  1  0  0  0  0
  8 36  1  0  0  0  0
  8 37  1  0  0  0  0
 11 38  1  0  0  0  0
 12 39  1  0  0  0  0
 11 40  1  0  0  0  0
 13 41  1  0  0  0  0
 13 42  1  0  0  0  0
 14 43  1  0  0  0  0
 14 44  1  0  0  0  0
 15 45  1  0  0  0  0
 15 46  1  0  0  0  0
  2 47  1  0  0  0  0
 16 48  1  0  0  0  0
 18 49  1  0  0  0  0
 18 50  1  0  0  0  0
 19 51  1  0  0  0  0
 19 52  1  0  0  0  0
 21 53  1  0  0  0  0
 22 54  1  0  0  0  0
 25 55  1  0  0  0  0
 25 56  1  0  0  0  0
 25 57  1  0  0  0  0
 28 58  1  0  0  0  0
 28 59  1  0  0  0  0
 28 60  1  0  0  0  0
 29 61  1  0  0  0  0
 30 62  1  0  0  0  0
 30 63  1  0  0  0  0
 30 64  1  0  0  0  0
 31 65  1  0  0  0  0
 32 66  1  0  0  0  0
 32 67  1  0  0  0  0
 32 68  1  0  0  0  0
 33 69  1  0  0  0  0
 33 70  1  0  0  0  0
 33 71  1  0  0  0  0
  1 72  1  0  0  0  0
M  CHG  1   1   1
M  END
