 xtb: 6.6.1 (8d0f1dd)
          06052419583D

 25 26  0     0  0            999 V2000
    3.2992    1.1136    0.0201 C   0  0  0  0  0  0  0  0  0  0  0  0
    2.3167    0.0633    0.0041 N   0  0  0  0  0  0  0  0  0  0  0  0
    2.5455   -1.2464    0.0138 C   0  0  0  0  0  0  0  0  0  0  0  0
    1.3735   -1.9242    0.0135 N   0  0  0  0  0  0  0  0  0  0  0  0
    0.3559   -1.0105    0.0093 C   0  0  0  0  0  0  0  0  0  0  0  0
    0.9451    0.2615   -0.0005 C   0  0  0  0  0  0  0  0  0  0  0  0
    0.2058    1.4645   -0.0545 C   0  0  0  0  0  0  0  0  0  0  0  0
    0.6129    2.6041   -0.0887 O   0  0  0  0  0  0  0  0  0  0  0  0
   -1.2445    1.2099   -0.0902 N   0  0  0  0  0  0  0  0  0  0  0  0
   -2.0104    2.2972   -0.1868 C   0  0  0  0  0  0  0  0  0  0  0  0
   -1.7500   -0.0475    0.0219 C   0  0  0  0  0  0  0  0  0  0  0  0
   -3.0836   -0.2579    0.0799 O   0  0  0  0  0  0  0  0  0  0  0  0
   -0.9725   -1.1826    0.0346 N   0  0  0  0  0  0  0  0  0  0  0  0
   -1.5646   -2.5061    0.0491 C   0  0  0  0  0  0  0  0  0  0  0  0
    3.8314    1.1214    0.9733 H   0  0  0  0  0  0  0  0  0  0  0  0
    4.0204    0.9730   -0.7847 H   0  0  0  0  0  0  0  0  0  0  0  0
    2.7877    2.0669   -0.1087 H   0  0  0  0  0  0  0  0  0  0  0  0
    3.5122   -1.7079    0.0160 H   0  0  0  0  0  0  0  0  0  0  0  0
   -1.5102    3.2431   -0.2093 H   0  0  0  0  0  0  0  0  0  0  0  0
   -3.0716    2.2285   -0.3222 H   0  0  0  0  0  0  0  0  0  0  0  0
   -3.5553    0.4954    0.4596 H   0  0  0  0  0  0  0  0  0  0  0  0
   -1.2003   -3.0678    0.9101 H   0  0  0  0  0  0  0  0  0  0  0  0
   -1.3179   -3.0372   -0.8712 H   0  0  0  0  0  0  0  0  0  0  0  0
   -2.6443   -2.4076    0.1183 H   0  0  0  0  0  0  0  0  0  0  0  0
    1.2793   -2.9286    0.0245 H   0  0  0  0  0  0  0  0  0  0  0  0
  1  2  1  0  0  0  0
  2  3  4  0  0  0  0
  3  4  4  0  0  0  0
  4  5  1  0  0  0  0
  2  6  1  0  0  0  0
  5  6  4  0  0  0  0
  6  7  1  0  0  0  0
  7  8  2  0  0  0  0
  7  9  1  0  0  0  0
  9 10  4  0  0  0  0
  9 11  1  0  0  0  0
 11 12  1  0  0  0  0
  5 13  4  0  0  0  0
 11 13  1  0  0  0  0
 13 14  1  0  0  0  0
  1 15  1  0  0  0  0
  1 16  1  0  0  0  0
  1 17  1  0  0  0  0
  3 18  1  0  0  0  0
 10 19  1  0  0  0  0
 10 20  1  0  0  0  0
 12 21  1  0  0  0  0
 14 22  1  0  0  0  0
 14 23  1  0  0  0  0
 14 24  1  0  0  0  0
  4 25  1  0  0  0  0
M  CHG  1   1   1
M  END
