 xtb: 6.6.1 (8d0f1dd)
          04062411123D

 72 72  0     0  0            999 V2000
   -1.8230    2.9983    2.2506 N   0  0  0  0  0  0  0  0  0  0  0  0
   -1.7367    2.2878    1.2277 C   0  0  0  0  0  0  0  0  0  0  0  0
   -2.8508    2.0602    0.2445 C   0  0  0  0  0  0  0  0  0  0  0  0
   -3.2804    0.6023    0.2932 C   0  0  0  0  0  0  0  0  0  0  0  0
   -4.1259    0.0814   -0.6886 C   0  0  0  0  0  0  0  0  0  0  0  0
   -4.5459   -1.2286   -0.6494 C   0  0  0  0  0  0  0  0  0  0  0  0
   -7.7889   -2.2787   -2.5930 O   0  0  0  0  0  0  0  0  0  0  0  0
   -8.9853   -2.2744   -2.5997 C   0  0  0  0  0  0  0  0  0  0  0  0
   -4.1304   -2.0785    0.3840 C   0  0  0  0  0  0  0  0  0  0  0  0
   -4.5822   -3.3477    0.3228 O   0  0  0  0  0  0  0  0  0  0  0  0
   -4.2925   -4.2363    1.3778 C   0  0  0  0  0  0  0  0  0  0  0  0
   -3.2951   -1.5669    1.3748 C   0  0  0  0  0  0  0  0  0  0  0  0
   -2.8853   -0.2435    1.3223 C   0  0  0  0  0  0  0  0  0  0  0  0
   -2.2633    2.3996   -1.1504 C   0  0  0  0  0  0  0  0  0  0  0  0
   -1.3039    1.3388   -1.7188 C   0  0  0  0  0  0  0  0  0  0  0  0
    0.0043    1.2835   -1.0306 C   0  0  0  0  0  0  0  0  0  0  0  0
    0.6289    0.1757   -0.6552 N   0  0  0  0  0  0  0  0  0  0  0  0
    2.0046    0.2225   -0.2181 C   0  0  0  0  0  0  0  0  0  0  0  0
    2.9688   -0.2110   -1.3394 C   0  0  0  0  0  0  0  0  0  0  0  0
    4.3921   -0.0752   -0.8758 C   0  0  0  0  0  0  0  0  0  0  0  0
    5.0608    1.1316   -1.0048 C   0  0  0  0  0  0  0  0  0  0  0  0
    6.3648    1.2730   -0.5566 C   0  0  0  0  0  0  0  0  0  0  0  0
    7.0269    0.2064    0.0342 C   0  0  0  0  0  0  0  0  0  0  0  0
    8.2873    0.2259    0.5040 O   0  0  0  0  0  0  0  0  0  0  0  0
    9.0473    1.4070    0.3881 C   0  0  0  0  0  0  0  0  0  0  0  0
    6.3486   -1.0369    0.1714 C   0  0  0  0  0  0  0  0  0  0  0  0
    7.0696   -2.0190    0.7467 O   0  0  0  0  0  0  0  0  0  0  0  0
    6.4985   -3.2961    0.9017 C   0  0  0  0  0  0  0  0  0  0  0  0
    5.0431   -1.1526   -0.2798 C   0  0  0  0  0  0  0  0  0  0  0  0
    0.0017   -1.1216   -0.7361 C   0  0  0  0  0  0  0  0  0  0  0  0
   -4.1057    2.9430    0.5140 C   0  0  0  0  0  0  0  0  0  0  0  0
   -4.7650    2.5895    1.8447 C   0  0  0  0  0  0  0  0  0  0  0  0
   -3.8075    4.4389    0.4679 C   0  0  0  0  0  0  0  0  0  0  0  0
   -4.4760    0.7111   -1.4914 H   0  0  0  0  0  0  0  0  0  0  0  0
   -9.5886   -2.7439   -1.8047 H   0  0  0  0  0  0  0  0  0  0  0  0
   -9.5740   -1.8040   -3.4030 H   0  0  0  0  0  0  0  0  0  0  0  0
   -5.2141   -1.6251   -1.3971 H   0  0  0  0  0  0  0  0  0  0  0  0
   -4.6574   -3.8537    2.3353 H   0  0  0  0  0  0  0  0  0  0  0  0
   -4.8151   -5.1595    1.1354 H   0  0  0  0  0  0  0  0  0  0  0  0
   -3.2185   -4.4385    1.4499 H   0  0  0  0  0  0  0  0  0  0  0  0
   -2.9682   -2.1817    2.1985 H   0  0  0  0  0  0  0  0  0  0  0  0
   -2.2616    0.1333    2.1200 H   0  0  0  0  0  0  0  0  0  0  0  0
   -3.0858    2.5175   -1.8547 H   0  0  0  0  0  0  0  0  0  0  0  0
   -1.7413    3.3554   -1.0882 H   0  0  0  0  0  0  0  0  0  0  0  0
   -1.7969    0.3684   -1.7313 H   0  0  0  0  0  0  0  0  0  0  0  0
   -1.1061    1.6256   -2.7603 H   0  0  0  0  0  0  0  0  0  0  0  0
   -0.8059    1.7764    0.9102 H   0  0  0  0  0  0  0  0  0  0  0  0
    0.5663    2.2037   -0.9558 H   0  0  0  0  0  0  0  0  0  0  0  0
    2.1313   -0.4345    0.6464 H   0  0  0  0  0  0  0  0  0  0  0  0
    2.2537    1.2408    0.0873 H   0  0  0  0  0  0  0  0  0  0  0  0
    2.7998    0.4255   -2.2099 H   0  0  0  0  0  0  0  0  0  0  0  0
    2.7611   -1.2438   -1.6214 H   0  0  0  0  0  0  0  0  0  0  0  0
    4.5709    1.9730   -1.4708 H   0  0  0  0  0  0  0  0  0  0  0  0
    6.8610    2.2218   -0.6777 H   0  0  0  0  0  0  0  0  0  0  0  0
    8.5897    2.2339    0.9396 H   0  0  0  0  0  0  0  0  0  0  0  0
    9.1815    1.6950   -0.6588 H   0  0  0  0  0  0  0  0  0  0  0  0
   10.0161    1.1743    0.8257 H   0  0  0  0  0  0  0  0  0  0  0  0
    7.2738   -3.9088    1.3577 H   0  0  0  0  0  0  0  0  0  0  0  0
    5.6257   -3.2679    1.5618 H   0  0  0  0  0  0  0  0  0  0  0  0
    6.2157   -3.7296   -0.0627 H   0  0  0  0  0  0  0  0  0  0  0  0
    4.5223   -2.0926   -0.1853 H   0  0  0  0  0  0  0  0  0  0  0  0
   -0.1497   -1.4261   -1.7735 H   0  0  0  0  0  0  0  0  0  0  0  0
   -0.9669   -1.1075   -0.2306 H   0  0  0  0  0  0  0  0  0  0  0  0
    0.6363   -1.8572   -0.2483 H   0  0  0  0  0  0  0  0  0  0  0  0
   -4.8198    2.7128   -0.2851 H   0  0  0  0  0  0  0  0  0  0  0  0
   -4.0925    2.8150    2.6663 H   0  0  0  0  0  0  0  0  0  0  0  0
   -5.0323    1.5362    1.8832 H   0  0  0  0  0  0  0  0  0  0  0  0
   -5.6718    3.1756    1.9682 H   0  0  0  0  0  0  0  0  0  0  0  0
   -3.0780    4.7019    1.2279 H   0  0  0  0  0  0  0  0  0  0  0  0
   -3.4400    4.7507   -0.5061 H   0  0  0  0  0  0  0  0  0  0  0  0
   -4.7218    4.9905    0.6697 H   0  0  0  0  0  0  0  0  0  0  0  0
   -0.9963    3.1019    2.8308 H   0  0  0  0  0  0  0  0  0  0  0  0
  1  2  2  0  0  0  0
  2  3  1  0  0  0  0
  3  4  1  0  0  0  0
  4  5  4  0  0  0  0
  5  6  4  0  0  0  0
  7  8  2  0  0  0  0
  6  9  4  0  0  0  0
  9 10  1  0  0  0  0
 10 11  1  0  0  0  0
  9 12  4  0  0  0  0
  4 13  4  0  0  0  0
 12 13  4  0  0  0  0
  3 14  1  0  0  0  0
 14 15  1  0  0  0  0
 15 16  1  0  0  0  0
 16 17  4  0  0  0  0
 17 18  1  0  0  0  0
 18 19  1  0  0  0  0
 19 20  1  0  0  0  0
 20 21  4  0  0  0  0
 21 22  4  0  0  0  0
 22 23  4  0  0  0  0
 23 24  1  0  0  0  0
 24 25  1  0  0  0  0
 23 26  4  0  0  0  0
 26 27  1  0  0  0  0
 27 28  1  0  0  0  0
 20 29  4  0  0  0  0
 26 29  4  0  0  0  0
 17 30  1  0  0  0  0
  3 31  1  0  0  0  0
 31 32  1  0  0  0  0
 31 33  1  0  0  0  0
  5 34  1  0  0  0  0
  8 35  1  0  0  0  0
  8 36  1  0  0  0  0
  6 37  1  0  0  0  0
 11 38  1  0  0  0  0
 11 39  1  0  0  0  0
 11 40  1  0  0  0  0
 12 41  1  0  0  0  0
 13 42  1  0  0  0  0
 14 43  1  0  0  0  0
 14 44  1  0  0  0  0
 15 45  1  0  0  0  0
 15 46  1  0  0  0  0
  2 47  1  0  0  0  0
 16 48  1  0  0  0  0
 18 49  1  0  0  0  0
 18 50  1  0  0  0  0
 19 51  1  0  0  0  0
 19 52  1  0  0  0  0
 21 53  1  0  0  0  0
 22 54  1  0  0  0  0
 25 55  1  0  0  0  0
 25 56  1  0  0  0  0
 25 57  1  0  0  0  0
 28 58  1  0  0  0  0
 28 59  1  0  0  0  0
 28 60  1  0  0  0  0
 29 61  1  0  0  0  0
 30 62  1  0  0  0  0
 30 63  1  0  0  0  0
 30 64  1  0  0  0  0
 31 65  1  0  0  0  0
 32 66  1  0  0  0  0
 32 67  1  0  0  0  0
 32 68  1  0  0  0  0
 33 69  1  0  0  0  0
 33 70  1  0  0  0  0
 33 71  1  0  0  0  0
  1 72  1  0  0  0  0
M  CHG  1   1   1
M  END
