 xtb: 6.6.1 (8d0f1dd)
          06052419593D

 25 27  0     0  0            999 V2000
    2.8726    0.7144    0.4627 C   0  0  0  0  0  0  0  0  0  0  0  0
    1.8430   -0.2177    0.0638 N   0  0  0  0  0  0  0  0  0  0  0  0
    2.1291   -1.4102   -0.4473 C   0  0  0  0  0  0  0  0  0  0  0  0
    1.1548   -2.2471   -0.9174 N   0  0  0  0  0  0  0  0  0  0  0  0
   -0.1988   -2.1090   -0.5284 C   0  0  0  0  0  0  0  0  0  0  0  0
    0.5231    0.1679    0.2364 C   0  0  0  0  0  0  0  0  0  0  0  0
   -0.0445    1.4594    0.1017 C   0  0  0  0  0  0  0  0  0  0  0  0
    0.4592    2.5620    0.1270 O   0  0  0  0  0  0  0  0  0  0  0  0
   -1.4465    1.2370   -0.0749 N   0  0  0  0  0  0  0  0  0  0  0  0
   -2.3847    2.3263   -0.2184 C   0  0  0  0  0  0  0  0  0  0  0  0
   -1.7836   -0.0533   -0.1567 C   0  0  0  0  0  0  0  0  0  0  0  0
   -2.8028   -0.6437   -0.3534 O   0  0  0  0  0  0  0  0  0  0  0  0
   -0.4984   -0.8183    0.0896 N   0  0  0  0  0  0  0  0  0  0  0  0
   -0.5570   -2.0336    0.9110 C   0  0  0  0  0  0  0  0  0  0  0  0
    3.0920    0.6069    1.5271 H   0  0  0  0  0  0  0  0  0  0  0  0
    3.7791    0.5383   -0.1114 H   0  0  0  0  0  0  0  0  0  0  0  0
    2.5155    1.7305    0.2883 H   0  0  0  0  0  0  0  0  0  0  0  0
    3.1560   -1.6990   -0.5798 H   0  0  0  0  0  0  0  0  0  0  0  0
   -1.8309    3.1962   -0.5703 H   0  0  0  0  0  0  0  0  0  0  0  0
   -3.1616    2.0488   -0.9284 H   0  0  0  0  0  0  0  0  0  0  0  0
   -2.8417    2.5613    0.7445 H   0  0  0  0  0  0  0  0  0  0  0  0
    0.2178   -2.1435    1.6585 H   0  0  0  0  0  0  0  0  0  0  0  0
   -0.9170   -2.4947   -1.2376 H   0  0  0  0  0  0  0  0  0  0  0  0
   -1.5560   -2.3160    1.2231 H   0  0  0  0  0  0  0  0  0  0  0  0
    1.4416   -3.1448   -1.2785 H   0  0  0  0  0  0  0  0  0  0  0  0
  1  2  1  0  0  0  0
  2  3  4  0  0  0  0
  3  4  1  0  0  0  0
  4  5  1  0  0  0  0
  2  6  1  0  0  0  0
  6  7  4  0  0  0  0
  7  8  2  0  0  0  0
  7  9  1  0  0  0  0
  9 10  1  0  0  0  0
  9 11  4  0  0  0  0
 11 12  2  0  0  0  0
  5 13  1  0  0  0  0
  6 13  1  0  0  0  0
 11 13  1  0  0  0  0
  5 14  1  0  0  0  0
 13 14  1  0  0  0  0
  1 15  1  0  0  0  0
  1 16  1  0  0  0  0
  1 17  1  0  0  0  0
  3 18  1  0  0  0  0
 10 19  1  0  0  0  0
 10 20  1  0  0  0  0
 10 21  1  0  0  0  0
 14 22  1  0  0  0  0
  5 23  1  0  0  0  0
 14 24  1  0  0  0  0
  4 25  1  0  0  0  0
M  CHG  1   1   1
M  END
