 xtb: 6.6.1 (8d0f1dd)
          04062411153D

 72 73  0     0  0            999 V2000
   -1.8644    2.8364    2.2105 N   0  0  0  0  0  0  0  0  0  0  0  0
   -1.8171    2.1247    1.1847 C   0  0  0  0  0  0  0  0  0  0  0  0
   -2.9628    1.9123    0.2346 C   0  0  0  0  0  0  0  0  0  0  0  0
   -3.4342    0.4685    0.3224 C   0  0  0  0  0  0  0  0  0  0  0  0
   -4.3625   -0.0125   -0.6035 C   0  0  0  0  0  0  0  0  0  0  0  0
   -4.8391   -1.3108   -0.5438 C   0  0  0  0  0  0  0  0  0  0  0  0
   -5.7448   -1.8475   -1.3897 O   0  0  0  0  0  0  0  0  0  0  0  0
   -6.3600   -1.0224   -2.3505 C   0  0  0  0  0  0  0  0  0  0  0  0
   -4.3659   -2.1838    0.4715 C   0  0  0  0  0  0  0  0  0  0  0  0
   -4.8775   -3.4327    0.4489 O   0  0  0  0  0  0  0  0  0  0  0  0
   -4.5255   -4.3335    1.4722 C   0  0  0  0  0  0  0  0  0  0  0  0
   -3.4451   -1.7013    1.3868 C   0  0  0  0  0  0  0  0  0  0  0  0
   -2.9886   -0.3904    1.3140 C   0  0  0  0  0  0  0  0  0  0  0  0
   -2.4035    2.1999   -1.1838 C   0  0  0  0  0  0  0  0  0  0  0  0
   -1.4779    1.1028   -1.7409 C   0  0  0  0  0  0  0  0  0  0  0  0
   -0.1530    1.0662   -1.0843 C   0  0  0  0  0  0  0  0  0  0  0  0
    0.4813   -0.0354   -0.6841 N   0  0  0  0  0  0  0  0  0  0  0  0
    1.8466    0.0373   -0.2312 C   0  0  0  0  0  0  0  0  0  0  0  0
    2.8417   -0.4279   -1.3178 C   0  0  0  0  0  0  0  0  0  0  0  0
    4.2506   -0.1960   -0.8669 C   0  0  0  0  0  0  0  0  0  0  0  0
    4.9212    0.9444   -1.1411 C   0  0  0  0  0  0  0  0  0  0  0  0
    6.2366    1.1874   -0.6854 C   0  0  0  0  0  0  0  0  0  0  0  0
    6.9335    0.2178    0.0135 C   0  0  0  0  0  0  0  0  0  0  0  0
    8.1955    0.3429    0.4728 O   0  0  0  0  0  0  0  0  0  0  0  0
    8.8916    1.5474    0.2339 C   0  0  0  0  0  0  0  0  0  0  0  0
    6.3167   -1.0284    0.2819 C   0  0  0  0  0  0  0  0  0  0  0  0
    7.0651   -1.9817    0.8117 O   0  0  0  0  0  0  0  0  0  0  0  0
    6.6579   -3.1650    1.1734 C   0  0  0  0  0  0  0  0  0  0  0  0
    4.8769   -1.2787   -0.0458 C   0  0  0  0  0  0  0  0  0  0  0  0
   -0.1307   -1.3405   -0.7515 C   0  0  0  0  0  0  0  0  0  0  0  0
   -4.1789    2.8420    0.5211 C   0  0  0  0  0  0  0  0  0  0  0  0
   -4.8217    2.5215    1.8685 C   0  0  0  0  0  0  0  0  0  0  0  0
   -3.8278    4.3259    0.4572 C   0  0  0  0  0  0  0  0  0  0  0  0
   -4.7288    0.6454   -1.3737 H   0  0  0  0  0  0  0  0  0  0  0  0
   -6.8711   -0.1753   -1.8832 H   0  0  0  0  0  0  0  0  0  0  0  0
   -7.0924   -1.6530   -2.8506 H   0  0  0  0  0  0  0  0  0  0  0  0
   -5.6389   -0.6546   -3.0879 H   0  0  0  0  0  0  0  0  0  0  0  0
   -4.8023   -3.9486    2.4582 H   0  0  0  0  0  0  0  0  0  0  0  0
   -5.0894   -5.2416    1.2683 H   0  0  0  0  0  0  0  0  0  0  0  0
   -3.4547   -4.5617    1.4563 H   0  0  0  0  0  0  0  0  0  0  0  0
   -3.0826   -2.3352    2.1798 H   0  0  0  0  0  0  0  0  0  0  0  0
   -2.2969   -0.0422    2.0655 H   0  0  0  0  0  0  0  0  0  0  0  0
   -3.2397    2.3167   -1.8722 H   0  0  0  0  0  0  0  0  0  0  0  0
   -1.8599    3.1452   -1.1623 H   0  0  0  0  0  0  0  0  0  0  0  0
   -1.9796    0.1384   -1.6874 H   0  0  0  0  0  0  0  0  0  0  0  0
   -1.3160    1.3370   -2.8014 H   0  0  0  0  0  0  0  0  0  0  0  0
   -0.9034    1.6027    0.8397 H   0  0  0  0  0  0  0  0  0  0  0  0
    0.4135    1.9848   -1.0511 H   0  0  0  0  0  0  0  0  0  0  0  0
    1.9592   -0.5838    0.6618 H   0  0  0  0  0  0  0  0  0  0  0  0
    2.0846    1.0688    0.0361 H   0  0  0  0  0  0  0  0  0  0  0  0
    2.6436    0.1394   -2.2286 H   0  0  0  0  0  0  0  0  0  0  0  0
    2.6789   -1.4865   -1.5285 H   0  0  0  0  0  0  0  0  0  0  0  0
    4.4499    1.7104   -1.7398 H   0  0  0  0  0  0  0  0  0  0  0  0
    6.6918    2.1337   -0.9188 H   0  0  0  0  0  0  0  0  0  0  0  0
    8.3820    2.4009    0.6903 H   0  0  0  0  0  0  0  0  0  0  0  0
    9.0216    1.7270   -0.8369 H   0  0  0  0  0  0  0  0  0  0  0  0
    9.8663    1.4186    0.7001 H   0  0  0  0  0  0  0  0  0  0  0  0
    7.4320   -3.8502    1.4868 H   0  0  0  0  0  0  0  0  0  0  0  0
    5.6174   -3.4630    1.1415 H   0  0  0  0  0  0  0  0  0  0  0  0
    4.7929   -2.2316   -0.5970 H   0  0  0  0  0  0  0  0  0  0  0  0
    4.3036   -1.4162    0.8867 H   0  0  0  0  0  0  0  0  0  0  0  0
   -0.2732   -1.6581   -1.7868 H   0  0  0  0  0  0  0  0  0  0  0  0
   -1.1011   -1.3336   -0.2490 H   0  0  0  0  0  0  0  0  0  0  0  0
    0.5104   -2.0631   -0.2530 H   0  0  0  0  0  0  0  0  0  0  0  0
   -4.9180    2.6358   -0.2614 H   0  0  0  0  0  0  0  0  0  0  0  0
   -4.1244    2.7326    2.6726 H   0  0  0  0  0  0  0  0  0  0  0  0
   -5.1191    1.4772    1.9235 H   0  0  0  0  0  0  0  0  0  0  0  0
   -5.7067    3.1373    2.0054 H   0  0  0  0  0  0  0  0  0  0  0  0
   -3.0780    4.5684    1.2037 H   0  0  0  0  0  0  0  0  0  0  0  0
   -3.4637    4.6155   -0.5251 H   0  0  0  0  0  0  0  0  0  0  0  0
   -4.7186    4.9118    0.6678 H   0  0  0  0  0  0  0  0  0  0  0  0
   -1.0170    2.9258    2.7628 H   0  0  0  0  0  0  0  0  0  0  0  0
  1  2  2  0  0  0  0
  2  3  1  0  0  0  0
  3  4  1  0  0  0  0
  4  5  4  0  0  0  0
  5  6  4  0  0  0  0
  6  7  1  0  0  0  0
  7  8  1  0  0  0  0
  6  9  4  0  0  0  0
  9 10  1  0  0  0  0
 10 11  1  0  0  0  0
  9 12  4  0  0  0  0
  4 13  4  0  0  0  0
 12 13  4  0  0  0  0
  3 14  1  0  0  0  0
 14 15  1  0  0  0  0
 15 16  1  0  0  0  0
 16 17  4  0  0  0  0
 17 18  1  0  0  0  0
 18 19  1  0  0  0  0
 19 20  1  0  0  0  0
 20 21  2  0  0  0  0
 21 22  4  0  0  0  0
 22 23  4  0  0  0  0
 23 24  1  0  0  0  0
 24 25  1  0  0  0  0
 23 26  4  0  0  0  0
 26 27  1  0  0  0  0
 27 28  4  0  0  0  0
 20 29  1  0  0  0  0
 26 29  1  0  0  0  0
 17 30  1  0  0  0  0
  3 31  1  0  0  0  0
 31 32  1  0  0  0  0
 31 33  1  0  0  0  0
  5 34  1  0  0  0  0
  8 35  1  0  0  0  0
  8 36  1  0  0  0  0
  8 37  1  0  0  0  0
 11 38  1  0  0  0  0
 11 39  1  0  0  0  0
 11 40  1  0  0  0  0
 12 41  1  0  0  0  0
 13 42  1  0  0  0  0
 14 43  1  0  0  0  0
 14 44  1  0  0  0  0
 15 45  1  0  0  0  0
 15 46  1  0  0  0  0
  2 47  1  0  0  0  0
 16 48  1  0  0  0  0
 18 49  1  0  0  0  0
 18 50  1  0  0  0  0
 19 51  1  0  0  0  0
 19 52  1  0  0  0  0
 21 53  1  0  0  0  0
 22 54  1  0  0  0  0
 25 55  1  0  0  0  0
 25 56  1  0  0  0  0
 25 57  1  0  0  0  0
 28 58  1  0  0  0  0
 28 59  1  0  0  0  0
 29 60  1  0  0  0  0
 29 61  1  0  0  0  0
 30 62  1  0  0  0  0
 30 63  1  0  0  0  0
 30 64  1  0  0  0  0
 31 65  1  0  0  0  0
 32 66  1  0  0  0  0
 32 67  1  0  0  0  0
 32 68  1  0  0  0  0
 33 69  1  0  0  0  0
 33 70  1  0  0  0  0
 33 71  1  0  0  0  0
  1 72  1  0  0  0  0
M  CHG  1   1   1
M  END
