 xtb: 6.6.1 (8d0f1dd)
          06052419593D

 25 26  0     0  0            999 V2000
    3.2498    1.0822   -0.0514 C   0  0  0  0  0  0  0  0  0  0  0  0
    2.2995    0.0072   -0.0243 N   0  0  0  0  0  0  0  0  0  0  0  0
    2.5701   -1.3038   -0.0097 C   0  0  0  0  0  0  0  0  0  0  0  0
    1.4107   -2.0150    0.0324 N   0  0  0  0  0  0  0  0  0  0  0  0
    0.3791   -1.1316    0.0482 C   0  0  0  0  0  0  0  0  0  0  0  0
    0.9301    0.1614    0.0088 C   0  0  0  0  0  0  0  0  0  0  0  0
    0.1215    1.2946   -0.0185 C   0  0  0  0  0  0  0  0  0  0  0  0
   -1.6017    3.2241   -0.6882 O   0  0  0  0  0  0  0  0  0  0  0  0
   -1.1996    1.0277    0.0563 N   0  0  0  0  0  0  0  0  0  0  0  0
   -2.0946    2.1908    0.0780 C   0  0  0  0  0  0  0  0  0  0  0  0
   -1.8122   -0.2242    0.1120 C   0  0  0  0  0  0  0  0  0  0  0  0
   -3.0063   -0.3601    0.1698 O   0  0  0  0  0  0  0  0  0  0  0  0
   -0.9522   -1.3383    0.0866 N   0  0  0  0  0  0  0  0  0  0  0  0
   -1.5280   -2.6671    0.0769 C   0  0  0  0  0  0  0  0  0  0  0  0
    3.7242    1.2015    0.9250 H   0  0  0  0  0  0  0  0  0  0  0  0
    4.0230    0.8871   -0.7939 H   0  0  0  0  0  0  0  0  0  0  0  0
    2.7237    2.0015   -0.3004 H   0  0  0  0  0  0  0  0  0  0  0  0
    3.5485   -1.7368   -0.0217 H   0  0  0  0  0  0  0  0  0  0  0  0
   -2.2129    2.5115    1.1265 H   0  0  0  0  0  0  0  0  0  0  0  0
   -0.6293    3.1177   -0.7454 H   0  0  0  0  0  0  0  0  0  0  0  0
   -3.0765    1.8943   -0.3082 H   0  0  0  0  0  0  0  0  0  0  0  0
   -1.2635   -3.2068    0.9868 H   0  0  0  0  0  0  0  0  0  0  0  0
   -1.1865   -3.2204   -0.7983 H   0  0  0  0  0  0  0  0  0  0  0  0
   -2.6107   -2.5565    0.0327 H   0  0  0  0  0  0  0  0  0  0  0  0
    1.3543   -3.0227    0.0512 H   0  0  0  0  0  0  0  0  0  0  0  0
  1  2  1  0  0  0  0
  2  3  4  0  0  0  0
  3  4  4  0  0  0  0
  4  5  4  0  0  0  0
  2  6  1  0  0  0  0
  5  6  4  0  0  0  0
  6  7  4  0  0  0  0
  7  9  4  0  0  0  0
  8 10  1  0  0  0  0
  9 10  1  0  0  0  0
  9 11  1  0  0  0  0
 11 12  2  0  0  0  0
  5 13  4  0  0  0  0
 11 13  1  0  0  0  0
 13 14  1  0  0  0  0
  1 15  1  0  0  0  0
  1 16  1  0  0  0  0
  1 17  1  0  0  0  0
  3 18  1  0  0  0  0
 10 19  1  0  0  0  0
  8 20  1  0  0  0  0
 10 21  1  0  0  0  0
 14 22  1  0  0  0  0
 14 23  1  0  0  0  0
 14 24  1  0  0  0  0
  4 25  1  0  0  0  0
M  CHG  1   1   1
M  END
