          24
 
C              3.14391051        1.08759137       -0.00463127
N              2.28027280        0.08028414       -0.00238815
C              2.54306467       -1.24756350       -0.01108346
N              1.37725438       -1.95070496       -0.00519699
C              0.34531443       -1.06446921        0.00762644
C              0.88983114        0.20832595        0.01127533
C              0.06890113        1.39664388        0.01263051
O              0.47324422        2.53494193        0.02003230
N             -1.28900472        1.07061531        0.00065024
C             -2.23998593        2.17253908       -0.01921489
C             -1.85810444       -0.18909132        0.00136614
O             -3.04484436       -0.35823261       -0.00625138
N             -0.97756142       -1.29502892        0.00976810
C             -1.53256837       -2.63201096        0.01264303
H              4.22280637        0.90301293       -0.04205055
H              2.75675739        2.09284003       -0.00058649
H              3.51983236       -1.68549886       -0.02132447
H             -1.67789662        3.10347212       -0.00401379
H             -2.85357218        2.11459179       -0.91802229
H             -2.89807322        2.11122852        0.84727373
H             -1.24245051       -3.16701237        0.91736028
H             -1.20799062       -3.18469324       -0.86975707
H             -2.61830242       -2.53637986       -0.00883779
H              1.31316482       -2.95818897       -0.00840300
