          22
 
C              3.32762710       -1.04364493       -2.42291171
C              4.45349177       -0.74128656       -1.69605631
C              5.03050705        0.55964577       -1.73507029
C              6.16388557        0.85945306       -1.02519817
C              6.79112060       -0.10589383       -0.23052949
O              7.89874673        0.08002214        0.49561478
C              8.53715397        1.33691639        0.49074614
C              6.22905556       -1.42296429       -0.16386725
O              6.90775284       -2.27586773        0.63118439
C              6.48643060       -3.61669252        0.71472488
C              5.09494709       -1.71751104       -0.87623199
H              2.85923932       -0.30761166       -3.05098588
H              2.90209671       -2.03126665       -2.41541954
H              4.56293296        1.31229821       -2.35046190
H              6.58027781        1.85225488       -1.08878367
H              7.87861765        2.11983887        0.87911718
H              8.87706903        1.60855933       -0.51337873
H              9.39920137        1.23003037        1.14768081
H              7.20341197       -4.10794780        1.37009039
H              5.48498712       -3.69640245        1.14986353
H              6.49919096       -4.10127525       -0.26609565
H              4.66616935       -2.70648253       -0.84504849
