          68
 
C             -3.11866251        2.11969016       -0.10785382
C             -3.60896244        0.82826207        0.13788240
C             -4.18891070        0.04802566       -0.90699206
C             -4.61237072       -1.24562138       -0.71485942
O             -5.18209514       -2.02957646       -1.65987898
C             -5.48962555       -1.47518821       -2.91611557
C             -4.45905597       -1.86327338        0.56074184
O             -4.86374286       -3.14292185        0.64741001
C             -4.79370279       -3.80323346        1.88997152
C             -3.92685077       -1.10366413        1.59925528
C             -3.52925831        0.19974961        1.40490384
C             -2.86201159        2.57474605       -1.51353879
C             -1.84704949        1.70287008       -2.31564237
C             -0.50783938        1.68440346       -1.70292498
N              0.04273529        0.63677678       -1.10202231
C              1.40055703        0.69943672       -0.61672267
C              2.40136529        0.14913229       -1.65247776
C              3.79027190        0.12250553       -1.07936675
C              4.58427969        1.25716434       -1.08963957
C              5.86017393        1.23498367       -0.54754745
C              6.36866321        0.07463078        0.01798271
O              7.59257959       -0.06255178        0.56403257
C              8.47378771        1.03671613        0.55827982
C              5.56003989       -1.09395766        0.03635594
O              6.13071904       -2.18009704        0.59828650
C              5.42751761       -3.39908696        0.60729779
C              4.28607550       -1.04631560       -0.50626999
C             -0.59088654       -0.66060045       -1.10052339
C             -2.83820421        3.15741921        0.94803111
C             -3.80621230        3.16972310        2.13913859
C             -1.37758965        3.09343896        1.41871547
H             -4.36937372        0.51574758       -1.85938216
H             -6.15153511       -0.60829605       -2.82176431
H             -6.00379052       -2.26192752       -3.46545369
H             -4.58451639       -1.18747155       -3.46327119
H             -5.41263630       -3.30664717        2.64325376
H             -5.17803651       -4.80550426        1.71130857
H             -3.76261114       -3.87002931        2.25143097
H             -3.82189609       -1.53533279        2.58200169
H             -3.10876835        0.73071088        2.23833985
H             -3.79357147        2.58454339       -2.08675856
H             -2.48353585        3.59732566       -1.50210689
H             -2.23943920        0.69658984       -2.43306976
H             -1.76819398        2.16390723       -3.30463929
H              0.06463456        2.59817392       -1.69860438
H              1.47391391        0.11717786        0.30576868
H              1.65653819        1.73452511       -0.38440724
H              2.37325464        0.78521404       -2.53890944
H              2.10323213       -0.85904023       -1.94286303
H              4.21844494        2.16964002       -1.53520423
H              6.45746705        2.13135079       -0.57764665
H              8.07453294        1.87347238        1.13981342
H              8.69188255        1.37035015       -0.46059431
H              9.38970314        0.67848020        1.02430069
H              6.09586890       -4.11847363        1.07641048
H              4.50560757       -3.32770618        1.19370819
H              5.19143552       -3.73354351       -0.40787072
H              3.66795044       -1.93055796       -0.50351244
H             -0.64309395       -1.07810207       -2.10933452
H             -1.60388717       -0.59106978       -0.70135214
H             -0.01324839       -1.34080834       -0.47904812
H             -2.95982664        4.12855846        0.44906197
H             -3.46057948        2.55561722        2.96579040
H             -4.79290869        2.82461970        1.83915871
H             -3.90231571        4.18765091        2.51192311
H             -1.12461303        2.08473300        1.78539809
H             -0.70146224        3.32689559        0.59761874
H             -1.21363865        3.80957257        2.21937441
