24

C      3.224029    0.485052   -0.119939
N      2.086734   -0.414824   -0.087899
C      2.088995   -1.757984   -0.061459
N      0.835498   -2.243668   -0.036120
C      0.021385   -1.156286   -0.047312
C      0.816264   -0.048715   -0.079133
C      0.175460    1.197663   -0.095619
O      0.847620    2.261789   -0.125036
N     -1.164834    1.294321   -0.080656
C     -1.761621    2.598045   -0.098818
C     -1.881059    0.147860   -0.049062
O     -3.124483    0.252062   -0.035455
N     -1.320074   -1.063537   -0.032260
C     -2.080049   -2.294379    0.001562
H      3.445870    0.745837    0.935215
H      4.086107   -0.025356   -0.604062
H      3.026356    1.391752   -0.697161
H      2.963051   -2.385729   -0.060107
H     -1.194592    3.326944    0.553283
H     -1.602102    3.005038   -1.140826
H     -2.834857    2.607090    0.123917
H     -1.621753   -2.935815    0.795970
H     -1.876671   -2.841633   -0.959842
H     -3.155275   -2.145526    0.126512
