 xtb: 6.6.1 (8d0f1dd)
          06052419593D

 25 25  0     0  0            999 V2000
    3.6776    1.8495   -0.2275 C   0  0  0  0  0  0  0  0  0  0  0  0
    2.8310    0.7170    0.0356 N   0  0  0  0  0  0  0  0  0  0  0  0
    3.2246   -0.5325    0.3065 C   0  0  0  0  0  0  0  0  0  0  0  0
    2.1617   -1.3315    0.5069 N   0  0  0  0  0  0  0  0  0  0  0  0
    1.0414   -0.5655    0.3605 C   0  0  0  0  0  0  0  0  0  0  0  0
    1.4698    0.7233    0.0670 C   0  0  0  0  0  0  0  0  0  0  0  0
    0.3071    1.5937   -0.0959 C   0  0  0  0  0  0  0  0  0  0  0  0
    0.2230    2.7701   -0.3505 O   0  0  0  0  0  0  0  0  0  0  0  0
   -0.7719    0.7223    0.1203 N   0  0  0  0  0  0  0  0  0  0  0  0
   -2.1412    1.1806    0.0799 C   0  0  0  0  0  0  0  0  0  0  0  0
   -0.4131   -0.5880    0.3889 C   0  0  0  0  0  0  0  0  0  0  0  0
   -1.1864   -1.5154    0.5863 O   0  0  0  0  0  0  0  0  0  0  0  0
   -3.2464   -3.1332   -0.3762 N   0  0  0  0  0  0  0  0  0  0  0  0
   -4.4302   -2.8490   -0.7180 C   0  0  0  0  0  0  0  0  0  0  0  0
    4.2371    2.1228    0.6685 H   0  0  0  0  0  0  0  0  0  0  0  0
    4.3836    1.6189   -1.0257 H   0  0  0  0  0  0  0  0  0  0  0  0
    3.0534    2.6901   -0.5258 H   0  0  0  0  0  0  0  0  0  0  0  0
    4.2474   -0.8522    0.3558 H   0  0  0  0  0  0  0  0  0  0  0  0
   -2.1257    2.2692    0.0838 H   0  0  0  0  0  0  0  0  0  0  0  0
   -2.6370    0.8316   -0.8275 H   0  0  0  0  0  0  0  0  0  0  0  0
   -2.6781    0.8119    0.9536 H   0  0  0  0  0  0  0  0  0  0  0  0
   -2.5467   -2.4735    0.0176 H   0  0  0  0  0  0  0  0  0  0  0  0
   -2.9176   -4.0927   -0.4713 H   0  0  0  0  0  0  0  0  0  0  0  0
   -4.8017   -1.8342   -0.6162 H   0  0  0  0  0  0  0  0  0  0  0  0
    2.1990   -2.3151    0.7347 H   0  0  0  0  0  0  0  0  0  0  0  0
  1  2  1  0  0  0  0
  2  3  4  0  0  0  0
  3  4  4  0  0  0  0
  4  5  1  0  0  0  0
  2  6  1  0  0  0  0
  5  6  4  0  0  0  0
  6  7  1  0  0  0  0
  7  8  2  0  0  0  0
  7  9  1  0  0  0  0
  9 10  1  0  0  0  0
  5 11  1  0  0  0  0
  9 11  1  0  0  0  0
 11 12  2  0  0  0  0
 13 14  2  0  0  0  0
  1 15  1  0  0  0  0
  1 16  1  0  0  0  0
  1 17  1  0  0  0  0
  3 18  1  0  0  0  0
 10 19  1  0  0  0  0
 10 20  1  0  0  0  0
 10 21  1  0  0  0  0
 13 22  1  0  0  0  0
 13 23  1  0  0  0  0
 14 24  1  0  0  0  0
  4 25  1  0  0  0  0
M  CHG  1   1   1
M  END
