          52
 
N             -1.04802809        4.37447685        2.50878930
C             -0.80588076        4.12991587        1.26615316
C             -1.77096651        3.64706227        0.37663127
C             -1.37399824        3.34719344       -1.03491536
C             -1.03467905        1.87877457       -1.10823049
C              0.09025415        1.38924436       -0.55580490
N              0.47029899        0.08837021       -0.48660794
C              1.83233523       -0.22111946       -0.14214511
C              2.75455364       -0.25612387       -1.38296788
C              4.19495138       -0.19045260       -0.97142186
C              4.90421554        0.99812675       -1.06929405
C              6.22932249        1.07180185       -0.67209297
C              6.87418436       -0.04382367       -0.15470974
O              8.15313533       -0.09002552        0.25557814
C              8.96295901        1.05552737        0.11964638
C              6.15036931       -1.26519714       -0.03366237
O              6.84682098       -2.29243137        0.48603809
C              6.21898546       -3.54219232        0.64819869
C              4.82737506       -1.31489569       -0.44617590
C             -0.30742512       -0.94039417       -1.12933810
C             -3.19184844        3.43697906        0.78982644
C             -3.32561767        2.65854136        2.09999945
C             -3.86794340        4.81015144        0.94016976
H             -2.19626973        3.56595397       -1.71812326
H             -0.50825328        3.95025888       -1.32411875
H             -1.75174365        1.23128474       -1.58540423
H              0.18804530        4.30931325        0.83259373
H              0.78512770        2.07321601       -0.08735298
H              1.86078344       -1.18807624        0.36539768
H              2.20135002        0.53752269        0.55189205
H              2.51445112        0.60196403       -2.01336917
H              2.56150152       -1.16617953       -1.95301512
H              4.42641103        1.87822726       -1.47204157
H              6.75558681        2.00711978       -0.77014626
H              8.59512508        1.88150301        0.73587509
H              9.02685551        1.37797700       -0.92381879
H              9.95018558        0.75815084        0.46748581
H              6.97532243       -4.19532005        1.07923840
H              5.36610496       -3.47575516        1.33118815
H              5.88969309       -3.95316782       -0.31108460
H              4.27452569       -2.23809281       -0.37342786
H             -0.30723739       -0.83017573       -2.21848150
H             -1.34044272       -0.90591451       -0.77713510
H              0.10899660       -1.91292636       -0.87612722
H             -3.71083982        2.89170084       -0.00763104
H             -2.87436844        3.22921987        2.90740714
H             -2.82196952        1.69650658        2.03735698
H             -4.37652593        2.48966179        2.32331294
H             -3.37953895        5.37042662        1.73240015
H             -3.80494879        5.37836270        0.01509641
H             -4.91533865        4.67540639        1.19703016
H             -0.28879288        4.75583766        3.05947133
