 xtb: 6.6.1 (8d0f1dd)
          06052420003D

 25 26  0     0  0            999 V2000
    3.1067    1.2368    0.1779 C   0  0  0  0  0  0  0  0  0  0  0  0
    2.2451    0.0864    0.1070 N   0  0  0  0  0  0  0  0  0  0  0  0
    2.6140   -1.1922    0.1340 C   0  0  0  0  0  0  0  0  0  0  0  0
    1.5200   -1.9864    0.0522 N   0  0  0  0  0  0  0  0  0  0  0  0
    0.4206   -1.1802   -0.0270 C   0  0  0  0  0  0  0  0  0  0  0  0
    0.8750    0.1277    0.0092 C   0  0  0  0  0  0  0  0  0  0  0  0
   -0.0350    1.2531   -0.1005 C   0  0  0  0  0  0  0  0  0  0  0  0
    0.2669    2.4161   -0.1705 O   0  0  0  0  0  0  0  0  0  0  0  0
   -1.3724    0.7870   -0.1532 N   0  0  0  0  0  0  0  0  0  0  0  0
   -2.3881    1.8673   -0.2901 C   0  0  0  0  0  0  0  0  0  0  0  0
   -1.8009   -0.4763   -0.1773 C   0  0  0  0  0  0  0  0  0  0  0  0
   -2.4784    2.6763    0.8195 O   0  0  0  0  0  0  0  0  0  0  0  0
   -0.8978   -1.4824   -0.1307 N   0  0  0  0  0  0  0  0  0  0  0  0
   -1.3248   -2.8711   -0.2137 C   0  0  0  0  0  0  0  0  0  0  0  0
    3.6134    1.2719    1.1430 H   0  0  0  0  0  0  0  0  0  0  0  0
    3.8572    1.1968   -0.6114 H   0  0  0  0  0  0  0  0  0  0  0  0
    2.5005    2.1344    0.0584 H   0  0  0  0  0  0  0  0  0  0  0  0
    3.6225   -1.5466    0.2066 H   0  0  0  0  0  0  0  0  0  0  0  0
   -2.0552    2.5071   -1.1143 H   0  0  0  0  0  0  0  0  0  0  0  0
   -3.3275    1.3663   -0.5487 H   0  0  0  0  0  0  0  0  0  0  0  0
   -3.0028    2.2657    1.5191 H   0  0  0  0  0  0  0  0  0  0  0  0
   -1.0246   -3.4158    0.6818 H   0  0  0  0  0  0  0  0  0  0  0  0
   -0.8997   -3.3461   -1.0980 H   0  0  0  0  0  0  0  0  0  0  0  0
   -2.4091   -2.8813   -0.2900 H   0  0  0  0  0  0  0  0  0  0  0  0
    1.5348   -2.9960    0.0481 H   0  0  0  0  0  0  0  0  0  0  0  0
  1  2  1  0  0  0  0
  2  3  4  0  0  0  0
  3  4  4  0  0  0  0
  4  5  1  0  0  0  0
  2  6  1  0  0  0  0
  5  6  4  0  0  0  0
  6  7  1  0  0  0  0
  7  8  2  0  0  0  0
  7  9  1  0  0  0  0
  9 10  1  0  0  0  0
  9 11  4  0  0  0  0
 10 12  1  0  0  0  0
  5 13  1  0  0  0  0
 11 13  4  0  0  0  0
 13 14  1  0  0  0  0
  1 15  1  0  0  0  0
  1 16  1  0  0  0  0
  1 17  1  0  0  0  0
  3 18  1  0  0  0  0
 10 19  1  0  0  0  0
 10 20  1  0  0  0  0
 12 21  1  0  0  0  0
 14 22  1  0  0  0  0
 14 23  1  0  0  0  0
 14 24  1  0  0  0  0
  4 25  1  0  0  0  0
M  CHG  1   1   1
M  END
