 xtb: 6.6.1 (8d0f1dd)
          06052419573D

 25 26  0     0  0            999 V2000
    2.7042    0.5619   -0.1612 C   0  0  0  0  0  0  0  0  0  0  0  0
    1.7043   -0.4968   -0.1311 N   0  0  0  0  0  0  0  0  0  0  0  0
    2.1641   -1.7840    0.1787 C   0  0  0  0  0  0  0  0  0  0  0  0
    1.4504   -2.5487    0.8660 N   0  0  0  0  0  0  0  0  0  0  0  0
    0.4133   -0.1550   -0.1393 C   0  0  0  0  0  0  0  0  0  0  0  0
    0.7774    2.3226    0.6876 C   0  0  0  0  0  0  0  0  0  0  0  0
   -0.0563    1.2292    0.1174 C   0  0  0  0  0  0  0  0  0  0  0  0
    0.4990    2.3616   -0.5560 O   0  0  0  0  0  0  0  0  0  0  0  0
   -1.4616    1.1413    0.1860 N   0  0  0  0  0  0  0  0  0  0  0  0
   -2.3451    2.2579    0.4484 C   0  0  0  0  0  0  0  0  0  0  0  0
   -1.8749   -0.1159   -0.0833 C   0  0  0  0  0  0  0  0  0  0  0  0
   -2.9670   -0.5750   -0.1478 O   0  0  0  0  0  0  0  0  0  0  0  0
   -0.6617   -0.9047   -0.2929 N   0  0  0  0  0  0  0  0  0  0  0  0
   -0.8106   -2.2802   -0.6627 C   0  0  0  0  0  0  0  0  0  0  0  0
    2.4983    1.2955    0.6344 H   0  0  0  0  0  0  0  0  0  0  0  0
    3.6903    0.1393    0.0180 H   0  0  0  0  0  0  0  0  0  0  0  0
    2.7058    1.0740   -1.1259 H   0  0  0  0  0  0  0  0  0  0  0  0
    3.1787   -1.9627   -0.1850 H   0  0  0  0  0  0  0  0  0  0  0  0
   -2.1556    3.0676   -0.2588 H   0  0  0  0  0  0  0  0  0  0  0  0
   -3.3667    1.9002    0.3285 H   0  0  0  0  0  0  0  0  0  0  0  0
   -2.2002    2.6201    1.4684 H   0  0  0  0  0  0  0  0  0  0  0  0
   -0.4045   -2.9259    0.1229 H   0  0  0  0  0  0  0  0  0  0  0  0
   -0.2859   -2.4873   -1.5943 H   0  0  0  0  0  0  0  0  0  0  0  0
   -1.8800   -2.4616   -0.7809 H   0  0  0  0  0  0  0  0  0  0  0  0
    1.8446   -3.4551    1.0940 H   0  0  0  0  0  0  0  0  0  0  0  0
  1  2  1  0  0  0  0
  2  3  1  0  0  0  0
  3  4  2  0  0  0  0
  2  5  4  0  0  0  0
  5  7  1  0  0  0  0
  6  7  1  0  0  0  0
  6  8  4  0  0  0  0
  7  8  1  0  0  0  0
  7  9  1  0  0  0  0
  9 10  1  0  0  0  0
  9 11  1  0  0  0  0
 11 12  2  0  0  0  0
  5 13  4  0  0  0  0
 11 13  1  0  0  0  0
 13 14  1  0  0  0  0
  1 15  1  0  0  0  0
  1 16  1  0  0  0  0
  1 17  1  0  0  0  0
  3 18  1  0  0  0  0
 10 19  1  0  0  0  0
 10 20  1  0  0  0  0
 10 21  1  0  0  0  0
 14 22  1  0  0  0  0
 14 23  1  0  0  0  0
 14 24  1  0  0  0  0
  4 25  1  0  0  0  0
M  CHG  1   1   1
M  END
