 xtb: 6.6.1 (8d0f1dd)
          06052420003D

 25 25  0     0  0            999 V2000
    3.1027    1.0198   -0.2891 C   0  0  0  0  0  0  0  0  0  0  0  0
    2.2311    0.0217   -0.2141 N   0  0  0  0  0  0  0  0  0  0  0  0
    2.4829   -1.3079   -0.2087 C   0  0  0  0  0  0  0  0  0  0  0  0
    1.3136   -2.0007   -0.1286 N   0  0  0  0  0  0  0  0  0  0  0  0
    0.2917   -1.1041   -0.0777 C   0  0  0  0  0  0  0  0  0  0  0  0
    0.8472    0.1631   -0.1240 C   0  0  0  0  0  0  0  0  0  0  0  0
    0.0344    1.3579   -0.0975 C   0  0  0  0  0  0  0  0  0  0  0  0
    0.4419    2.4936   -0.1339 O   0  0  0  0  0  0  0  0  0  0  0  0
   -1.3241    1.0394   -0.0201 N   0  0  0  0  0  0  0  0  0  0  0  0
   -2.2707    2.1457    0.0057 C   0  0  0  0  0  0  0  0  0  0  0  0
   -1.9031   -0.2153    0.0229 C   0  0  0  0  0  0  0  0  0  0  0  0
   -3.0900   -0.3756    0.0802 O   0  0  0  0  0  0  0  0  0  0  0  0
   -1.0305   -1.3266   -0.0032 N   0  0  0  0  0  0  0  0  0  0  0  0
   -1.5906   -2.6622    0.0430 C   0  0  0  0  0  0  0  0  0  0  0  0
    4.8094    2.2215    2.0217 H   0  0  0  0  0  0  0  0  0  0  0  0
    4.1514    0.8014   -0.3757 H   0  0  0  0  0  0  0  0  0  0  0  0
    2.7267    2.0263   -0.2894 H   0  0  0  0  0  0  0  0  0  0  0  0
    3.4564   -1.7501   -0.2651 H   0  0  0  0  0  0  0  0  0  0  0  0
   -1.7062    3.0749    0.0144 H   0  0  0  0  0  0  0  0  0  0  0  0
   -2.9142    2.1032   -0.8735 H   0  0  0  0  0  0  0  0  0  0  0  0
   -2.8993    2.0730    0.8929 H   0  0  0  0  0  0  0  0  0  0  0  0
   -1.2528   -3.1888    0.9360 H   0  0  0  0  0  0  0  0  0  0  0  0
   -1.3143   -3.2226   -0.8509 H   0  0  0  0  0  0  0  0  0  0  0  0
   -2.6748   -2.5618    0.0788 H   0  0  0  0  0  0  0  0  0  0  0  0
    1.2418   -3.0076   -0.1130 H   0  0  0  0  0  0  0  0  0  0  0  0
  1  2  4  0  0  0  0
  2  3  4  0  0  0  0
  3  4  4  0  0  0  0
  4  5  1  0  0  0  0
  2  6  1  0  0  0  0
  5  6  4  0  0  0  0
  6  7  1  0  0  0  0
  7  8  2  0  0  0  0
  7  9  1  0  0  0  0
  9 10  1  0  0  0  0
  9 11  1  0  0  0  0
 11 12  2  0  0  0  0
  5 13  4  0  0  0  0
 11 13  1  0  0  0  0
 13 14  1  0  0  0  0
  1 16  1  0  0  0  0
  1 17  1  0  0  0  0
  3 18  1  0  0  0  0
 10 19  1  0  0  0  0
 10 20  1  0  0  0  0
 10 21  1  0  0  0  0
 14 22  1  0  0  0  0
 14 23  1  0  0  0  0
 14 24  1  0  0  0  0
  4 25  1  0  0  0  0
M  CHG  1   1   1
M  END
