 xtb: 6.6.1 (8d0f1dd)
          06052419583D

 25 26  0     0  0            999 V2000
    3.1655    0.7926    0.5014 C   0  0  0  0  0  0  0  0  0  0  0  0
    2.3531    0.0297   -0.4846 N   0  0  0  0  0  0  0  0  0  0  0  0
    2.6283   -1.4206   -0.4021 C   0  0  0  0  0  0  0  0  0  0  0  0
    1.4653   -1.9817   -0.1952 N   0  0  0  0  0  0  0  0  0  0  0  0
    0.3982   -1.0736   -0.1354 C   0  0  0  0  0  0  0  0  0  0  0  0
    0.9230    0.1697   -0.3116 C   0  0  0  0  0  0  0  0  0  0  0  0
    0.1179    1.3697   -0.3082 C   0  0  0  0  0  0  0  0  0  0  0  0
    0.5393    2.4902   -0.4518 O   0  0  0  0  0  0  0  0  0  0  0  0
   -1.2251    1.0543   -0.1100 N   0  0  0  0  0  0  0  0  0  0  0  0
   -2.1749    2.1609   -0.0867 C   0  0  0  0  0  0  0  0  0  0  0  0
   -1.7885   -0.1930    0.0755 C   0  0  0  0  0  0  0  0  0  0  0  0
   -2.9595   -0.3610    0.2443 O   0  0  0  0  0  0  0  0  0  0  0  0
   -0.9002   -1.3081    0.0573 N   0  0  0  0  0  0  0  0  0  0  0  0
   -1.4481   -2.6372    0.2522 C   0  0  0  0  0  0  0  0  0  0  0  0
    2.9155    0.4622    1.5066 H   0  0  0  0  0  0  0  0  0  0  0  0
    4.2219    0.6117    0.3138 H   0  0  0  0  0  0  0  0  0  0  0  0
    2.9373    1.8531    0.3991 H   0  0  0  0  0  0  0  0  0  0  0  0
    2.6594    0.3784   -1.4135 H   0  0  0  0  0  0  0  0  0  0  0  0
   -1.6252    3.0798   -0.2736 H   0  0  0  0  0  0  0  0  0  0  0  0
   -2.9342    2.0092   -0.8525 H   0  0  0  0  0  0  0  0  0  0  0  0
   -2.6664    2.2053    0.8843 H   0  0  0  0  0  0  0  0  0  0  0  0
   -1.0408   -3.0928    1.1550 H   0  0  0  0  0  0  0  0  0  0  0  0
   -1.2464   -3.2675   -0.6141 H   0  0  0  0  0  0  0  0  0  0  0  0
   -2.5264   -2.5283    0.3669 H   0  0  0  0  0  0  0  0  0  0  0  0
    1.3715   -2.9846   -0.0859 H   0  0  0  0  0  0  0  0  0  0  0  0
  1  2  1  0  0  0  0
  2  3  1  0  0  0  0
  3  4  2  0  0  0  0
  4  5  1  0  0  0  0
  2  6  1  0  0  0  0
  5  6  4  0  0  0  0
  6  7  1  0  0  0  0
  7  8  2  0  0  0  0
  7  9  1  0  0  0  0
  9 10  1  0  0  0  0
  9 11  1  0  0  0  0
 11 12  2  0  0  0  0
  5 13  4  0  0  0  0
 11 13  1  0  0  0  0
 13 14  1  0  0  0  0
  1 15  1  0  0  0  0
  1 16  1  0  0  0  0
  1 17  1  0  0  0  0
  2 18  1  0  0  0  0
 10 19  1  0  0  0  0
 10 20  1  0  0  0  0
 10 21  1  0  0  0  0
 14 22  1  0  0  0  0
 14 23  1  0  0  0  0
 14 24  1  0  0  0  0
  4 25  1  0  0  0  0
M  CHG  1   1   1
M  END
