 xtb: 6.6.1 (8d0f1dd)
          04062411153D

 72 73  0     0  0            999 V2000
   -1.8251    2.8142    2.1819 N   0  0  0  0  0  0  0  0  0  0  0  0
   -1.8218    2.1116    1.1510 C   0  0  0  0  0  0  0  0  0  0  0  0
   -2.9920    1.9111    0.2293 C   0  0  0  0  0  0  0  0  0  0  0  0
   -3.4798    0.4726    0.3197 C   0  0  0  0  0  0  0  0  0  0  0  0
   -4.4347    0.0109   -0.5883 C   0  0  0  0  0  0  0  0  0  0  0  0
   -4.9083   -1.2892   -0.5410 C   0  0  0  0  0  0  0  0  0  0  0  0
   -5.8305   -1.8144   -1.3732 O   0  0  0  0  0  0  0  0  0  0  0  0
   -6.4617   -0.9829   -2.3188 C   0  0  0  0  0  0  0  0  0  0  0  0
   -4.4059   -2.1803    0.4459 C   0  0  0  0  0  0  0  0  0  0  0  0
   -4.9149   -3.4282    0.4142 O   0  0  0  0  0  0  0  0  0  0  0  0
   -4.5216   -4.3499    1.4038 C   0  0  0  0  0  0  0  0  0  0  0  0
   -3.4609   -1.7142    1.3455 C   0  0  0  0  0  0  0  0  0  0  0  0
   -3.0072   -0.4022    1.2844 C   0  0  0  0  0  0  0  0  0  0  0  0
   -2.4490    2.1774   -1.1965 C   0  0  0  0  0  0  0  0  0  0  0  0
   -1.5053    1.0758   -1.7212 C   0  0  0  0  0  0  0  0  0  0  0  0
   -0.1751    1.0753   -1.0731 C   0  0  0  0  0  0  0  0  0  0  0  0
    0.4939   -0.0028   -0.6770 N   0  0  0  0  0  0  0  0  0  0  0  0
    1.8704    0.1136   -0.2559 C   0  0  0  0  0  0  0  0  0  0  0  0
    2.8438   -0.3285   -1.3648 C   0  0  0  0  0  0  0  0  0  0  0  0
    4.2617   -0.1216   -0.9130 C   0  0  0  0  0  0  0  0  0  0  0  0
    4.9002    1.0896   -1.1225 C   0  0  0  0  0  0  0  0  0  0  0  0
    6.2011    1.2898   -0.6874 C   0  0  0  0  0  0  0  0  0  0  0  0
    6.8887    0.2809   -0.0282 C   0  0  0  0  0  0  0  0  0  0  0  0
    8.1522    0.3614    0.4280 O   0  0  0  0  0  0  0  0  0  0  0  0
    8.8823    1.5487    0.2207 C   0  0  0  0  0  0  0  0  0  0  0  0
    6.2375   -0.9631    0.2003 C   0  0  0  0  0  0  0  0  0  0  0  0
    6.9741   -1.8883    0.8468 O   0  0  0  0  0  0  0  0  0  0  0  0
    6.4218   -3.1609    1.0855 C   0  0  0  0  0  0  0  0  0  0  0  0
    4.9360   -1.1388   -0.2421 C   0  0  0  0  0  0  0  0  0  0  0  0
   -0.0811   -1.3262   -0.6979 C   0  0  0  0  0  0  0  0  0  0  0  0
   -4.1868    2.8575    0.5465 C   0  0  0  0  0  0  0  0  0  0  0  0
   -4.8002    2.5287    1.9066 C   0  0  0  0  0  0  0  0  0  0  0  0
   -3.8149    4.3368    0.4923 C   0  0  0  0  0  0  0  0  0  0  0  0
   -4.8235    0.6834   -1.3347 H   0  0  0  0  0  0  0  0  0  0  0  0
   -6.9639   -0.1377   -1.8388 H   0  0  0  0  0  0  0  0  0  0  0  0
   -7.2034   -1.6106   -2.8091 H   0  0  0  0  0  0  0  0  0  0  0  0
   -5.7530   -0.6125   -3.0669 H   0  0  0  0  0  0  0  0  0  0  0  0
   -4.7634   -3.9873    2.4073 H   0  0  0  0  0  0  0  0  0  0  0  0
   -5.0881   -5.2565    1.2012 H   0  0  0  0  0  0  0  0  0  0  0  0
   -3.4510   -4.5707    1.3428 H   0  0  0  0  0  0  0  0  0  0  0  0
   -3.0744   -2.3625    2.1149 H   0  0  0  0  0  0  0  0  0  0  0  0
   -2.2945   -0.0652    2.0213 H   0  0  0  0  0  0  0  0  0  0  0  0
   -3.2875    2.2597   -1.8853 H   0  0  0  0  0  0  0  0  0  0  0  0
   -1.9132    3.1278   -1.2022 H   0  0  0  0  0  0  0  0  0  0  0  0
   -2.0009    0.1089   -1.6335 H   0  0  0  0  0  0  0  0  0  0  0  0
   -1.3658    1.2633   -2.7972 H   0  0  0  0  0  0  0  0  0  0  0  0
   -0.9210    1.5921    0.7625 H   0  0  0  0  0  0  0  0  0  0  0  0
    0.3773    2.0041   -1.0806 H   0  0  0  0  0  0  0  0  0  0  0  0
    2.0284   -0.5002    0.6353 H   0  0  0  0  0  0  0  0  0  0  0  0
    2.0825    1.1527    0.0058 H   0  0  0  0  0  0  0  0  0  0  0  0
    2.6472    0.2651   -2.2592 H   0  0  0  0  0  0  0  0  0  0  0  0
    2.6738   -1.3792   -1.6027 H   0  0  0  0  0  0  0  0  0  0  0  0
    4.3903    1.8867   -1.6419 H   0  0  0  0  0  0  0  0  0  0  0  0
    6.6750    2.2395   -0.8732 H   0  0  0  0  0  0  0  0  0  0  0  0
    8.4114    2.4010    0.7199 H   0  0  0  0  0  0  0  0  0  0  0  0
    8.9969    1.7667   -0.8454 H   0  0  0  0  0  0  0  0  0  0  0  0
    9.8618    1.3697    0.6598 H   0  0  0  0  0  0  0  0  0  0  0  0
    7.2024   -3.7297    1.5866 H   0  0  0  0  0  0  0  0  0  0  0  0
    5.5439   -3.1013    1.7370 H   0  0  0  0  0  0  0  0  0  0  0  0
    6.1518   -3.6626    0.1510 H   0  0  0  0  0  0  0  0  0  0  0  0
    4.4344   -2.0802   -0.0820 H   0  0  0  0  0  0  0  0  0  0  0  0
   -0.2111   -1.6862   -1.7210 H   0  0  0  0  0  0  0  0  0  0  0  0
   -1.0526   -1.3310   -0.1974 H   0  0  0  0  0  0  0  0  0  0  0  0
    0.5814   -2.0097   -0.1725 H   0  0  0  0  0  0  0  0  0  0  0  0
   -4.9462    2.6731   -0.2220 H   0  0  0  0  0  0  0  0  0  0  0  0
   -4.0752    2.7105    2.6938 H   0  0  0  0  0  0  0  0  0  0  0  0
   -5.1178    1.4895    1.9528 H   0  0  0  0  0  0  0  0  0  0  0  0
   -5.6677    3.1596    2.0816 H   0  0  0  0  0  0  0  0  0  0  0  0
   -3.0535    4.5631    1.2325 H   0  0  0  0  0  0  0  0  0  0  0  0
   -3.4577    4.6291   -0.4919 H   0  0  0  0  0  0  0  0  0  0  0  0
   -4.6946    4.9342    0.7177 H   0  0  0  0  0  0  0  0  0  0  0  0
   -0.9588    2.9027    2.7033 H   0  0  0  0  0  0  0  0  0  0  0  0
  1  2  2  0  0  0  0
  2  3  1  0  0  0  0
  3  4  1  0  0  0  0
  4  5  4  0  0  0  0
  5  6  4  0  0  0  0
  6  7  1  0  0  0  0
  7  8  1  0  0  0  0
  6  9  4  0  0  0  0
  9 10  1  0  0  0  0
 10 11  1  0  0  0  0
  9 12  4  0  0  0  0
  4 13  4  0  0  0  0
 12 13  4  0  0  0  0
  3 14  1  0  0  0  0
 14 15  1  0  0  0  0
 15 16  1  0  0  0  0
 16 17  4  0  0  0  0
 17 18  1  0  0  0  0
 18 19  1  0  0  0  0
 19 20  1  0  0  0  0
 20 21  4  0  0  0  0
 21 22  4  0  0  0  0
 22 23  4  0  0  0  0
 23 24  1  0  0  0  0
 24 25  1  0  0  0  0
 23 26  4  0  0  0  0
 26 27  1  0  0  0  0
 27 28  1  0  0  0  0
 20 29  4  0  0  0  0
 26 29  4  0  0  0  0
 17 30  1  0  0  0  0
  3 31  1  0  0  0  0
 31 32  1  0  0  0  0
 31 33  1  0  0  0  0
  5 34  1  0  0  0  0
  8 35  1  0  0  0  0
  8 36  1  0  0  0  0
  8 37  1  0  0  0  0
 11 38  1  0  0  0  0
 11 39  1  0  0  0  0
 11 40  1  0  0  0  0
 12 41  1  0  0  0  0
 13 42  1  0  0  0  0
 14 43  1  0  0  0  0
 14 44  1  0  0  0  0
 15 45  1  0  0  0  0
 15 46  1  0  0  0  0
  2 47  1  0  0  0  0
 16 48  1  0  0  0  0
 18 49  1  0  0  0  0
 18 50  1  0  0  0  0
 19 51  1  0  0  0  0
 19 52  1  0  0  0  0
 21 53  1  0  0  0  0
 22 54  1  0  0  0  0
 25 55  1  0  0  0  0
 25 56  1  0  0  0  0
 25 57  1  0  0  0  0
 28 58  1  0  0  0  0
 28 59  1  0  0  0  0
 28 60  1  0  0  0  0
 29 61  1  0  0  0  0
 30 62  1  0  0  0  0
 30 63  1  0  0  0  0
 30 64  1  0  0  0  0
 31 65  1  0  0  0  0
 32 66  1  0  0  0  0
 32 67  1  0  0  0  0
 32 68  1  0  0  0  0
 33 69  1  0  0  0  0
 33 70  1  0  0  0  0
 33 71  1  0  0  0  0
  1 72  1  0  0  0  0
M  CHG  1   1   1
M  END
