          24
 
C              3.37784254        0.59738365        0.02495601
N              2.26229216       -0.30797944       -0.01061193
C              2.31706691       -1.64473674       -0.02839489
N              1.05799549       -2.15472005       -0.03558176
C              0.18027313       -1.11119660       -0.02207837
C              0.93325837        0.06025087       -0.00868731
C              0.33440927        1.35614831       -0.00521114
O              0.89484554        2.43420086        0.00448947
N             -1.10285448        1.27385192       -0.02411542
C             -1.78056986        2.43261989       -0.05758547
C             -1.87042601        0.07857839       -0.00155788
O             -3.07379578        0.11098463        0.02116511
N             -1.17068320       -1.12607237       -0.01187051
C             -1.91606746       -2.36982577        0.01019979
H              3.93711179        0.47457203        0.95379690
H              4.04790669        0.40962623       -0.81427316
H              3.00097658        1.61816838       -0.03159289
H              3.21390253       -2.22932116       -0.03874871
H             -1.20882665        3.34302273       -0.06873063
H             -2.85388282        2.40530463       -0.08589353
H             -1.64208105       -2.96046809        0.88474072
H             -1.73342740       -2.94070308       -0.90106135
H             -2.97522768       -2.12162948        0.06611005
H              0.83192462       -3.13798792       -0.05435075
