 xtb: 6.6.1 (8d0f1dd)
          06052420003D

 25 26  0     0  0            999 V2000
    3.2011    1.1376    0.0727 C   0  0  0  0  0  0  0  0  0  0  0  0
    2.2759    0.0549   -0.0700 N   0  0  0  0  0  0  0  0  0  0  0  0
    2.5474   -1.2397   -0.1346 C   0  0  0  0  0  0  0  0  0  0  0  0
    1.3961   -1.9516   -0.1396 N   0  0  0  0  0  0  0  0  0  0  0  0
    0.3565   -1.0705   -0.0677 C   0  0  0  0  0  0  0  0  0  0  0  0
    0.9094    0.1983   -0.0298 C   0  0  0  0  0  0  0  0  0  0  0  0
    0.0824    1.3935   -0.0181 C   0  0  0  0  0  0  0  0  0  0  0  0
    0.4906    2.5286   -0.0433 O   0  0  0  0  0  0  0  0  0  0  0  0
   -1.2703    1.0629    0.0136 N   0  0  0  0  0  0  0  0  0  0  0  0
   -2.2266    2.1636    0.0359 C   0  0  0  0  0  0  0  0  0  0  0  0
   -1.8432   -0.1960    0.0413 C   0  0  0  0  0  0  0  0  0  0  0  0
   -3.0271   -0.3650    0.1057 O   0  0  0  0  0  0  0  0  0  0  0  0
   -0.9637   -1.3036   -0.0180 N   0  0  0  0  0  0  0  0  0  0  0  0
   -1.5172   -2.6429    0.0321 C   0  0  0  0  0  0  0  0  0  0  0  0
    3.2938    1.4027    1.1310 H   0  0  0  0  0  0  0  0  0  0  0  0
    4.1806    0.8658   -0.3152 H   0  0  0  0  0  0  0  0  0  0  0  0
    2.8217    2.0235   -0.4453 H   0  0  0  0  0  0  0  0  0  0  0  0
    3.5283   -1.6698   -0.1896 H   0  0  0  0  0  0  0  0  0  0  0  0
   -1.6685    3.0964    0.0212 H   0  0  0  0  0  0  0  0  0  0  0  0
   -2.8814    2.1008   -0.8324 H   0  0  0  0  0  0  0  0  0  0  0  0
   -2.8387    2.1016    0.9348 H   0  0  0  0  0  0  0  0  0  0  0  0
   -1.1295   -3.1811    0.8975 H   0  0  0  0  0  0  0  0  0  0  0  0
   -1.2921   -3.1890   -0.8841 H   0  0  0  0  0  0  0  0  0  0  0  0
   -2.5979   -2.5442    0.1293 H   0  0  0  0  0  0  0  0  0  0  0  0
    1.3329   -2.9585   -0.1961 H   0  0  0  0  0  0  0  0  0  0  0  0
  1  2  1  0  0  0  0
  2  3  4  0  0  0  0
  3  4  4  0  0  0  0
  4  5  1  0  0  0  0
  2  6  1  0  0  0  0
  5  6  4  0  0  0  0
  6  7  1  0  0  0  0
  7  8  2  0  0  0  0
  7  9  1  0  0  0  0
  9 10  1  0  0  0  0
  9 11  1  0  0  0  0
 11 12  2  0  0  0  0
  5 13  4  0  0  0  0
 11 13  1  0  0  0  0
 13 14  1  0  0  0  0
  1 15  1  0  0  0  0
  1 16  1  0  0  0  0
  1 17  1  0  0  0  0
  3 18  1  0  0  0  0
 10 19  1  0  0  0  0
 10 20  1  0  0  0  0
 10 21  1  0  0  0  0
 14 22  1  0  0  0  0
 14 23  1  0  0  0  0
 14 24  1  0  0  0  0
  4 25  1  0  0  0  0
M  CHG  1   1   1
M  END
