 xtb: 6.6.1 (8d0f1dd)
          04062411133D

 72 73  0     0  0            999 V2000
   -1.0710    2.5180    1.8255 N   0  0  0  0  0  0  0  0  0  0  0  0
   -1.3162    1.7012    0.9106 C   0  0  0  0  0  0  0  0  0  0  0  0
   -2.5916    1.6796    0.1127 C   0  0  0  0  0  0  0  0  0  0  0  0
   -3.3287    0.3753    0.3695 C   0  0  0  0  0  0  0  0  0  0  0  0
   -4.3457   -0.0353   -0.4946 C   0  0  0  0  0  0  0  0  0  0  0  0
   -5.0565   -1.2026   -0.2722 C   0  0  0  0  0  0  0  0  0  0  0  0
   -6.0361   -1.6826   -1.0675 O   0  0  0  0  0  0  0  0  0  0  0  0
   -6.4130   -0.9560   -2.2128 C   0  0  0  0  0  0  0  0  0  0  0  0
   -4.7641   -1.9937    0.8714 C   0  0  0  0  0  0  0  0  0  0  0  0
   -5.5180   -3.1019    1.0167 O   0  0  0  0  0  0  0  0  0  0  0  0
   -5.3583   -3.8926    2.1715 C   0  0  0  0  0  0  0  0  0  0  0  0
   -3.7584   -1.5771    1.7292 C   0  0  0  0  0  0  0  0  0  0  0  0
   -3.0484   -0.4103    1.4776 C   0  0  0  0  0  0  0  0  0  0  0  0
   -2.1652    1.7836   -1.3756 C   0  0  0  0  0  0  0  0  0  0  0  0
   -1.5496    0.5052   -1.9758 C   0  0  0  0  0  0  0  0  0  0  0  0
   -0.1147    0.3185   -1.6351 C   0  0  0  0  0  0  0  0  0  0  0  0
    0.4521   -0.8132   -1.2178 N   0  0  0  0  0  0  0  0  0  0  0  0
    1.7647   -1.0584   -1.2030 C   0  0  0  0  0  0  0  0  0  0  0  0
    2.8173   -0.2710   -1.9178 C   0  0  0  0  0  0  0  0  0  0  0  0
    4.0058    0.0469   -1.0460 C   0  0  0  0  0  0  0  0  0  0  0  0
    4.1815    1.4475   -0.5769 C   0  0  0  0  0  0  0  0  0  0  0  0
    5.4336    1.6832    0.1911 C   0  0  0  0  0  0  0  0  0  0  0  0
    6.3207    0.6983    0.4771 C   0  0  0  0  0  0  0  0  0  0  0  0
    7.4788    0.8397    1.1531 O   0  0  0  0  0  0  0  0  0  0  0  0
    7.8518    2.1227    1.6007 C   0  0  0  0  0  0  0  0  0  0  0  0
    6.0645   -0.6500    0.0328 C   0  0  0  0  0  0  0  0  0  0  0  0
    6.9912   -1.5458    0.3794 O   0  0  0  0  0  0  0  0  0  0  0  0
    6.8742   -2.8872   -0.0410 C   0  0  0  0  0  0  0  0  0  0  0  0
    4.9166   -0.9173   -0.7298 C   0  0  0  0  0  0  0  0  0  0  0  0
   -0.4128   -1.8714   -0.7125 C   0  0  0  0  0  0  0  0  0  0  0  0
   -3.5645    2.8467    0.4600 C   0  0  0  0  0  0  0  0  0  0  0  0
   -4.0649    2.7580    1.9000 C   0  0  0  0  0  0  0  0  0  0  0  0
   -2.9613    4.2271    0.2143 C   0  0  0  0  0  0  0  0  0  0  0  0
   -4.5918    0.5740   -1.3481 H   0  0  0  0  0  0  0  0  0  0  0  0
   -6.7965    0.0352   -1.9528 H   0  0  0  0  0  0  0  0  0  0  0  0
   -7.2066   -1.5371   -2.6786 H   0  0  0  0  0  0  0  0  0  0  0  0
   -5.5803   -0.8541   -2.9168 H   0  0  0  0  0  0  0  0  0  0  0  0
   -5.5320   -3.3114    3.0819 H   0  0  0  0  0  0  0  0  0  0  0  0
   -6.1095   -4.6762    2.0948 H   0  0  0  0  0  0  0  0  0  0  0  0
   -4.3634   -4.3473    2.2120 H   0  0  0  0  0  0  0  0  0  0  0  0
   -3.5217   -2.1512    2.6101 H   0  0  0  0  0  0  0  0  0  0  0  0
   -2.2894   -0.1032    2.1809 H   0  0  0  0  0  0  0  0  0  0  0  0
   -3.0419    2.0506   -1.9650 H   0  0  0  0  0  0  0  0  0  0  0  0
   -1.4470    2.5982   -1.4755 H   0  0  0  0  0  0  0  0  0  0  0  0
   -2.1535   -0.3567   -1.7019 H   0  0  0  0  0  0  0  0  0  0  0  0
   -1.6121    0.6155   -3.0666 H   0  0  0  0  0  0  0  0  0  0  0  0
   -0.5962    0.9394    0.5662 H   0  0  0  0  0  0  0  0  0  0  0  0
    0.5449    1.1217   -1.9190 H   0  0  0  0  0  0  0  0  0  0  0  0
    2.0863   -1.9638   -0.7200 H   0  0  0  0  0  0  0  0  0  0  0  0
    3.3245    1.7538    0.0420 H   0  0  0  0  0  0  0  0  0  0  0  0
    2.4140    0.6486   -2.3364 H   0  0  0  0  0  0  0  0  0  0  0  0
    3.1732   -0.8847   -2.7573 H   0  0  0  0  0  0  0  0  0  0  0  0
    4.1577    2.1275   -1.4417 H   0  0  0  0  0  0  0  0  0  0  0  0
    5.6065    2.6978    0.5100 H   0  0  0  0  0  0  0  0  0  0  0  0
    7.1385    2.5131    2.3321 H   0  0  0  0  0  0  0  0  0  0  0  0
    7.9441    2.8255    0.7678 H   0  0  0  0  0  0  0  0  0  0  0  0
    8.8228    1.9956    2.0749 H   0  0  0  0  0  0  0  0  0  0  0  0
    7.7429   -3.3985    0.3693 H   0  0  0  0  0  0  0  0  0  0  0  0
    5.9632   -3.3519    0.3489 H   0  0  0  0  0  0  0  0  0  0  0  0
    6.8900   -2.9652   -1.1321 H   0  0  0  0  0  0  0  0  0  0  0  0
    4.7586   -1.9203   -1.0973 H   0  0  0  0  0  0  0  0  0  0  0  0
   -0.8999   -2.3824   -1.5434 H   0  0  0  0  0  0  0  0  0  0  0  0
   -1.1766   -1.4622   -0.0501 H   0  0  0  0  0  0  0  0  0  0  0  0
    0.1768   -2.5995   -0.1609 H   0  0  0  0  0  0  0  0  0  0  0  0
   -4.4300    2.7292   -0.2031 H   0  0  0  0  0  0  0  0  0  0  0  0
   -3.2357    2.8774    2.5901 H   0  0  0  0  0  0  0  0  0  0  0  0
   -4.5518    1.8050    2.0911 H   0  0  0  0  0  0  0  0  0  0  0  0
   -4.7848    3.5514    2.0837 H   0  0  0  0  0  0  0  0  0  0  0  0
   -2.0816    4.3671    0.8348 H   0  0  0  0  0  0  0  0  0  0  0  0
   -2.6935    4.3754   -0.8283 H   0  0  0  0  0  0  0  0  0  0  0  0
   -3.6910    4.9872    0.4814 H   0  0  0  0  0  0  0  0  0  0  0  0
   -0.1648    2.4557    2.2797 H   0  0  0  0  0  0  0  0  0  0  0  0
  1  2  2  0  0  0  0
  2  3  1  0  0  0  0
  3  4  1  0  0  0  0
  4  5  4  0  0  0  0
  5  6  4  0  0  0  0
  6  7  1  0  0  0  0
  7  8  1  0  0  0  0
  6  9  4  0  0  0  0
  9 10  1  0  0  0  0
 10 11  1  0  0  0  0
  9 12  4  0  0  0  0
  4 13  4  0  0  0  0
 12 13  4  0  0  0  0
  3 14  1  0  0  0  0
 14 15  1  0  0  0  0
 15 16  1  0  0  0  0
 16 17  4  0  0  0  0
 17 18  4  0  0  0  0
 18 19  1  0  0  0  0
 19 20  1  0  0  0  0
 20 21  1  0  0  0  0
 21 22  1  0  0  0  0
 22 23  2  0  0  0  0
 23 24  1  0  0  0  0
 24 25  1  0  0  0  0
 23 26  1  0  0  0  0
 26 27  1  0  0  0  0
 27 28  1  0  0  0  0
 20 29  2  0  0  0  0
 26 29  4  0  0  0  0
 17 30  1  0  0  0  0
  3 31  1  0  0  0  0
 31 32  1  0  0  0  0
 31 33  1  0  0  0  0
  5 34  1  0  0  0  0
  8 35  1  0  0  0  0
  8 36  1  0  0  0  0
  8 37  1  0  0  0  0
 11 38  1  0  0  0  0
 11 39  1  0  0  0  0
 11 40  1  0  0  0  0
 12 41  1  0  0  0  0
 13 42  1  0  0  0  0
 14 43  1  0  0  0  0
 14 44  1  0  0  0  0
 15 45  1  0  0  0  0
 15 46  1  0  0  0  0
  2 47  1  0  0  0  0
 16 48  1  0  0  0  0
 18 49  1  0  0  0  0
 21 50  1  0  0  0  0
 19 51  1  0  0  0  0
 19 52  1  0  0  0  0
 21 53  1  0  0  0  0
 22 54  1  0  0  0  0
 25 55  1  0  0  0  0
 25 56  1  0  0  0  0
 25 57  1  0  0  0  0
 28 58  1  0  0  0  0
 28 59  1  0  0  0  0
 28 60  1  0  0  0  0
 29 61  1  0  0  0  0
 30 62  1  0  0  0  0
 30 63  1  0  0  0  0
 30 64  1  0  0  0  0
 31 65  1  0  0  0  0
 32 66  1  0  0  0  0
 32 67  1  0  0  0  0
 32 68  1  0  0  0  0
 33 69  1  0  0  0  0
 33 70  1  0  0  0  0
 33 71  1  0  0  0  0
  1 72  1  0  0  0  0
M  CHG  1   1   1
M  END
