 xtb: 6.6.1 (8d0f1dd)
          06052419573D

 25 25  0     0  0            999 V2000
    4.3979    0.3756   -0.0178 C   0  0  0  0  0  0  0  0  0  0  0  0
    3.3957   -0.3758   -0.1540 N   0  0  0  0  0  0  0  0  0  0  0  0
    2.7176   -1.4342    0.0536 C   0  0  0  0  0  0  0  0  0  0  0  0
    1.3803   -1.5584    0.0355 N   0  0  0  0  0  0  0  0  0  0  0  0
    0.4041   -0.5643    0.0010 C   0  0  0  0  0  0  0  0  0  0  0  0
    0.6915    0.7623   -0.0012 C   0  0  0  0  0  0  0  0  0  0  0  0
   -0.3603    1.7589   -0.0061 C   0  0  0  0  0  0  0  0  0  0  0  0
   -0.1636    2.9523   -0.0012 O   0  0  0  0  0  0  0  0  0  0  0  0
   -1.6507    1.2324   -0.0056 N   0  0  0  0  0  0  0  0  0  0  0  0
   -2.7809    2.1462    0.0090 C   0  0  0  0  0  0  0  0  0  0  0  0
   -1.9681   -0.1016   -0.0160 C   0  0  0  0  0  0  0  0  0  0  0  0
   -3.1045   -0.4961   -0.0219 O   0  0  0  0  0  0  0  0  0  0  0  0
   -0.8899   -1.0052   -0.0170 N   0  0  0  0  0  0  0  0  0  0  0  0
   -1.2379   -2.4146   -0.0391 C   0  0  0  0  0  0  0  0  0  0  0  0
    4.8125    0.6109    0.9558 H   0  0  0  0  0  0  0  0  0  0  0  0
    4.8079    0.8701   -0.8937 H   0  0  0  0  0  0  0  0  0  0  0  0
    1.6980    1.1357    0.0102 H   0  0  0  0  0  0  0  0  0  0  0  0
    3.2576   -2.3767    0.1511 H   0  0  0  0  0  0  0  0  0  0  0  0
   -2.3946    3.1628    0.0262 H   0  0  0  0  0  0  0  0  0  0  0  0
   -3.3947    1.9841   -0.8772 H   0  0  0  0  0  0  0  0  0  0  0  0
   -3.3941    1.9536    0.8896 H   0  0  0  0  0  0  0  0  0  0  0  0
   -0.9133   -2.9214    0.8720 H   0  0  0  0  0  0  0  0  0  0  0  0
   -0.8411   -2.9076   -0.9282 H   0  0  0  0  0  0  0  0  0  0  0  0
   -2.3276   -2.4660   -0.0800 H   0  0  0  0  0  0  0  0  0  0  0  0
    1.0186   -2.5047    0.0861 H   0  0  0  0  0  0  0  0  0  0  0  0
  1  2  2  0  0  0  0
  2  3  2  0  0  0  0
  3  4  4  0  0  0  0
  4  5  1  0  0  0  0
  5  6  2  0  0  0  0
  6  7  1  0  0  0  0
  7  8  2  0  0  0  0
  7  9  1  0  0  0  0
  9 10  1  0  0  0  0
  9 11  1  0  0  0  0
 11 12  2  0  0  0  0
  5 13  1  0  0  0  0
 11 13  1  0  0  0  0
 13 14  1  0  0  0  0
  1 15  1  0  0  0  0
  1 16  1  0  0  0  0
  6 17  1  0  0  0  0
  3 18  1  0  0  0  0
 10 19  1  0  0  0  0
 10 20  1  0  0  0  0
 10 21  1  0  0  0  0
 14 22  1  0  0  0  0
 14 23  1  0  0  0  0
 14 24  1  0  0  0  0
  4 25  1  0  0  0  0
M  CHG  1   1   1
M  END
