          38
 
C             -1.96059789        2.26739727       -2.48508551
C             -1.52532236        1.00177834       -1.87720714
C             -0.17879846        1.02844060       -1.28093123
N              0.41970029       -0.03533244       -0.76724501
C              1.79474213        0.02274391       -0.33108743
C              2.75511260       -0.51059615       -1.41283735
C              4.18235227       -0.36137636       -0.96487761
C              4.84833430        0.84238720       -1.13394714
C              6.15942512        0.99470691       -0.71173277
C              6.83324748       -0.05707316       -0.10690541
O              8.10301337       -0.02589546        0.33565833
C              8.86085668        1.15115499        0.17308776
C              6.15711276       -1.29584701        0.07472480
O              6.88626676       -2.26296075        0.66464093
C              6.32092881       -3.53817889        0.85344567
C              4.84446479       -1.42277515       -0.35288157
C             -0.22119568       -1.32570625       -0.79160947
H             -2.88925339        2.30197430       -3.01737220
H             -1.39492970        3.16951458       -2.37286902
H             -2.25970698        0.70314549       -1.09924372
H             -1.59331438        0.18621701       -2.61807107
H              0.35928337        1.96219666       -1.24140018
H              1.90706352       -0.57045996        0.58042837
H              2.05551426        1.05747114       -0.10185224
H              2.59459950        0.05824229       -2.33060434
H              2.53432301       -1.55963528       -1.61337183
H              4.35077483        1.67214525       -1.61258700
H              6.65318587        1.94015966       -0.86494850
H              8.41856248        1.99079946        0.71765606
H              8.96797588        1.41537132       -0.88310677
H              9.84068025        0.92683626        0.59022893
H              7.10194827       -4.13773788        1.31700364
H              5.45343327       -3.49823268        1.51991733
H              6.03221363       -3.99393967       -0.09868330
H              4.32669056       -2.36084050       -0.22646900
H             -0.36423723       -1.67666416       -1.81712182
H             -1.20075127       -1.27239367       -0.30925477
H              0.39351592       -2.04661604       -0.25907276
