 xtb: 6.6.1 (8d0f1dd)
          04062411133D

 72 72  0     0  0            999 V2000
   -1.8378    3.1891    1.9276 N   0  0  0  0  0  0  0  0  0  0  0  0
   -2.0098    2.4534    0.9337 C   0  0  0  0  0  0  0  0  0  0  0  0
   -3.3561    2.2474    0.2777 C   0  0  0  0  0  0  0  0  0  0  0  0
   -3.6491    0.7412    0.2426 C   0  0  0  0  0  0  0  0  0  0  0  0
   -4.5455    0.2328   -0.6942 C   0  0  0  0  0  0  0  0  0  0  0  0
   -4.8836   -1.1121   -0.7059 C   0  0  0  0  0  0  0  0  0  0  0  0
   -5.7465   -1.6913   -1.5612 O   0  0  0  0  0  0  0  0  0  0  0  0
   -6.4301   -0.8956   -2.5020 C   0  0  0  0  0  0  0  0  0  0  0  0
   -4.3015   -1.9890    0.2522 C   0  0  0  0  0  0  0  0  0  0  0  0
   -4.6953   -3.2732    0.1743 O   0  0  0  0  0  0  0  0  0  0  0  0
   -4.2456   -4.1935    1.1421 C   0  0  0  0  0  0  0  0  0  0  0  0
   -3.4033   -1.4699    1.1733 C   0  0  0  0  0  0  0  0  0  0  0  0
   -3.0810   -0.1193    1.1690 C   0  0  0  0  0  0  0  0  0  0  0  0
   -3.1998    2.7442   -1.1034 C   0  0  0  0  0  0  0  0  0  0  0  0
   -1.1495    0.2446   -2.3481 C   0  0  0  0  0  0  0  0  0  0  0  0
    0.0101    0.5261   -1.7400 C   0  0  0  0  0  0  0  0  0  0  0  0
    0.5948   -0.1829   -0.7336 N   0  0  0  0  0  0  0  0  0  0  0  0
    1.9666    0.0782   -0.3901 C   0  0  0  0  0  0  0  0  0  0  0  0
    2.9649   -0.6487   -1.3205 C   0  0  0  0  0  0  0  0  0  0  0  0
    4.3732   -0.3729   -0.8857 C   0  0  0  0  0  0  0  0  0  0  0  0
    4.9692    0.8507   -1.1645 C   0  0  0  0  0  0  0  0  0  0  0  0
    6.2510    1.1355   -0.7253 C   0  0  0  0  0  0  0  0  0  0  0  0
    6.9731    0.1978    0.0025 C   0  0  0  0  0  0  0  0  0  0  0  0
    8.2158    0.3652    0.4846 O   0  0  0  0  0  0  0  0  0  0  0  0
    8.8881    1.5830    0.2580 C   0  0  0  0  0  0  0  0  0  0  0  0
    6.3785   -1.0666    0.2799 C   0  0  0  0  0  0  0  0  0  0  0  0
    7.1530   -1.9217    0.9714 O   0  0  0  0  0  0  0  0  0  0  0  0
    6.6752   -3.2155    1.2562 C   0  0  0  0  0  0  0  0  0  0  0  0
    5.0881   -1.3225   -0.1616 C   0  0  0  0  0  0  0  0  0  0  0  0
    0.0265   -1.4430   -0.3274 C   0  0  0  0  0  0  0  0  0  0  0  0
   -4.5481    2.9542    0.9879 C   0  0  0  0  0  0  0  0  0  0  0  0
   -4.7619    2.4452    2.4081 C   0  0  0  0  0  0  0  0  0  0  0  0
   -4.3699    4.4700    0.9945 C   0  0  0  0  0  0  0  0  0  0  0  0
   -4.9894    0.9002   -1.4139 H   0  0  0  0  0  0  0  0  0  0  0  0
   -7.0368   -0.1288   -2.0110 H   0  0  0  0  0  0  0  0  0  0  0  0
   -7.0819   -1.5795   -3.0422 H   0  0  0  0  0  0  0  0  0  0  0  0
   -5.7385   -0.4222   -3.2054 H   0  0  0  0  0  0  0  0  0  0  0  0
   -4.5125   -3.8736    2.1537 H   0  0  0  0  0  0  0  0  0  0  0  0
   -4.7539   -5.1286    0.9132 H   0  0  0  0  0  0  0  0  0  0  0  0
   -3.1631   -4.3448    1.0794 H   0  0  0  0  0  0  0  0  0  0  0  0
   -2.9560   -2.1104    1.9166 H   0  0  0  0  0  0  0  0  0  0  0  0
   -2.4009    0.2589    1.9162 H   0  0  0  0  0  0  0  0  0  0  0  0
   -4.0401    3.1302   -1.6477 H   0  0  0  0  0  0  0  0  0  0  0  0
   -2.2480    2.7023   -1.5954 H   0  0  0  0  0  0  0  0  0  0  0  0
   -1.7440   -0.6204   -2.1182 H   0  0  0  0  0  0  0  0  0  0  0  0
   -1.5187    0.8864   -3.1247 H   0  0  0  0  0  0  0  0  0  0  0  0
   -1.2060    1.9142    0.4100 H   0  0  0  0  0  0  0  0  0  0  0  0
    0.5623    1.4135   -2.0238 H   0  0  0  0  0  0  0  0  0  0  0  0
    2.1399   -0.2430    0.6410 H   0  0  0  0  0  0  0  0  0  0  0  0
    2.1513    1.1543   -0.4456 H   0  0  0  0  0  0  0  0  0  0  0  0
    2.8080   -0.2953   -2.3419 H   0  0  0  0  0  0  0  0  0  0  0  0
    2.7649   -1.7205   -1.2918 H   0  0  0  0  0  0  0  0  0  0  0  0
    4.4336    1.5911   -1.7386 H   0  0  0  0  0  0  0  0  0  0  0  0
    6.6857    2.0939   -0.9576 H   0  0  0  0  0  0  0  0  0  0  0  0
    8.3559    2.4237    0.7135 H   0  0  0  0  0  0  0  0  0  0  0  0
    9.0249    1.7721   -0.8107 H   0  0  0  0  0  0  0  0  0  0  0  0
    9.8611    1.4720    0.7328 H   0  0  0  0  0  0  0  0  0  0  0  0
    7.4803   -3.7123    1.7941 H   0  0  0  0  0  0  0  0  0  0  0  0
    5.7832   -3.1840    1.8896 H   0  0  0  0  0  0  0  0  0  0  0  0
    6.4547   -3.7708    0.3395 H   0  0  0  0  0  0  0  0  0  0  0  0
    4.6285   -2.2761    0.0464 H   0  0  0  0  0  0  0  0  0  0  0  0
    0.0785   -2.1879   -1.1280 H   0  0  0  0  0  0  0  0  0  0  0  0
   -1.0212   -1.3025   -0.0563 H   0  0  0  0  0  0  0  0  0  0  0  0
    0.5645   -1.8188    0.5400 H   0  0  0  0  0  0  0  0  0  0  0  0
   -5.4385    2.7104    0.3958 H   0  0  0  0  0  0  0  0  0  0  0  0
   -3.8980    2.6817    3.0224 H   0  0  0  0  0  0  0  0  0  0  0  0
   -4.9260    1.3706    2.4235 H   0  0  0  0  0  0  0  0  0  0  0  0
   -5.6331    2.9299    2.8401 H   0  0  0  0  0  0  0  0  0  0  0  0
   -3.5358    4.7441    1.6330 H   0  0  0  0  0  0  0  0  0  0  0  0
   -4.1784    4.8475   -0.0076 H   0  0  0  0  0  0  0  0  0  0  0  0
   -5.2707    4.9435    1.3768 H   0  0  0  0  0  0  0  0  0  0  0  0
   -0.8930    3.3023    2.2820 H   0  0  0  0  0  0  0  0  0  0  0  0
  1  2  2  0  0  0  0
  2  3  1  0  0  0  0
  3  4  1  0  0  0  0
  4  5  4  0  0  0  0
  5  6  4  0  0  0  0
  6  7  1  0  0  0  0
  7  8  1  0  0  0  0
  6  9  4  0  0  0  0
  9 10  1  0  0  0  0
 10 11  1  0  0  0  0
  9 12  4  0  0  0  0
  4 13  4  0  0  0  0
 12 13  4  0  0  0  0
  3 14  1  0  0  0  0
 15 16  2  0  0  0  0
 16 17  1  0  0  0  0
 17 18  1  0  0  0  0
 18 19  1  0  0  0  0
 19 20  1  0  0  0  0
 20 21  4  0  0  0  0
 21 22  4  0  0  0  0
 22 23  4  0  0  0  0
 23 24  1  0  0  0  0
 24 25  1  0  0  0  0
 23 26  4  0  0  0  0
 26 27  1  0  0  0  0
 27 28  1  0  0  0  0
 20 29  4  0  0  0  0
 26 29  4  0  0  0  0
 17 30  1  0  0  0  0
  3 31  1  0  0  0  0
 31 32  1  0  0  0  0
 31 33  1  0  0  0  0
  5 34  1  0  0  0  0
  8 35  1  0  0  0  0
  8 36  1  0  0  0  0
  8 37  1  0  0  0  0
 11 38  1  0  0  0  0
 11 39  1  0  0  0  0
 11 40  1  0  0  0  0
 12 41  1  0  0  0  0
 13 42  1  0  0  0  0
 14 43  1  0  0  0  0
 14 44  1  0  0  0  0
 15 45  1  0  0  0  0
 15 46  1  0  0  0  0
  2 47  1  0  0  0  0
 16 48  1  0  0  0  0
 18 49  1  0  0  0  0
 18 50  1  0  0  0  0
 19 51  1  0  0  0  0
 19 52  1  0  0  0  0
 21 53  1  0  0  0  0
 22 54  1  0  0  0  0
 25 55  1  0  0  0  0
 25 56  1  0  0  0  0
 25 57  1  0  0  0  0
 28 58  1  0  0  0  0
 28 59  1  0  0  0  0
 28 60  1  0  0  0  0
 29 61  1  0  0  0  0
 30 62  1  0  0  0  0
 30 63  1  0  0  0  0
 30 64  1  0  0  0  0
 31 65  1  0  0  0  0
 32 66  1  0  0  0  0
 32 67  1  0  0  0  0
 32 68  1  0  0  0  0
 33 69  1  0  0  0  0
 33 70  1  0  0  0  0
 33 71  1  0  0  0  0
  1 72  1  0  0  0  0
M  CHG  1   1   1
M  END
