          24
 
C              3.29036550        0.55895362       -0.02618344
N              2.26992484       -0.29130043       -0.01124249
C              2.31668151       -1.64628434       -0.02133576
N              1.04903876       -2.15484889       -0.01343822
C              0.17539667       -1.11538184        0.00087957
C              0.92025147        0.05763820        0.00612668
C              0.30015282        1.35544831        0.00214210
O              0.87228157        2.42349792        0.00436376
N             -1.09874497        1.25274579       -0.00543369
C             -1.86090995        2.49026527       -0.02370511
C             -1.86002338        0.09942891       -0.01044812
O             -3.06273644        0.12605491       -0.02233117
N             -1.17095741       -1.12943601       -0.00255491
C             -1.93216254       -2.36104837       -0.00525202
H              4.29557298        0.18130222       -0.05323203
H              3.08074035        1.61270782       -0.02869593
H              3.21014327       -2.23363872       -0.03221718
H             -1.16077080        3.32204553        0.02443504
H             -2.45327678        2.54885959       -0.93827162
H             -2.54427350        2.51840379        0.82600382
H             -1.72744591       -2.93936362        0.89667727
H             -1.69828625       -2.95374451       -0.89055372
H             -2.98893938       -2.09503557       -0.02543362
H              0.82631812       -3.13867893       -0.01488255
