          21
 
N              2.24843816       -0.44042768       -0.02122399
C              2.34448043       -1.73786734       -0.02301634
N              1.11991333       -2.35163416       -0.01332783
C              0.19818310       -1.35538734       -0.00558316
C              0.92721180       -0.15469407       -0.01042741
C              0.24480274        1.12133083       -0.00447763
O              0.77459003        2.21060702       -0.00181661
N             -1.14040645        0.97284711       -0.00235574
C             -1.95269460        2.18271130       -0.00371752
C             -1.86828989       -0.20165003        0.00234299
O             -3.06827570       -0.21567186        0.00479294
N             -1.13984815       -1.41331427        0.00448226
C             -1.86564558       -2.66373954        0.01358251
H              3.27124950       -2.27578786       -0.03157546
H             -1.28492745        3.03997556       -0.02013184
H             -2.60170230        2.19009746       -0.87908790
H             -2.57990825        2.20809465        0.88711315
H             -1.61635130       -3.24164950        0.90467331
H             -1.63385950       -3.24537564       -0.87978547
H             -2.92996278       -2.43009131        0.02321453
H              0.94657037       -3.34560514       -0.01222926
