          24
 
C              3.22510699        1.14760264       -0.01199638
N              2.28256996        0.05880947       -0.01062872
C              2.56725122       -1.23194867       -0.01586601
N              1.43579516       -1.95845861       -0.00768614
C              0.37392614       -1.08368038        0.00285745
C              0.91721396        0.19712666       -0.00032345
C              0.09385970        1.38872243        0.00686826
O              0.50040457        2.52767945        0.01375175
N             -1.26262879        1.05820944        0.00264049
C             -2.21635949        2.16447658       -0.00749774
C             -1.84185484       -0.18351903       -0.00992406
O             -3.02486309       -0.36447493       -0.03543515
N             -0.95477455       -1.33828755        0.01181424
C             -1.51832270       -2.55887202        0.01921548
H              3.84713706        1.10907063        0.88231384
H              3.86807874        1.09022031       -0.88999514
H              2.67297503        2.08726691       -0.02651470
H              3.55755423       -1.64628787       -0.02589730
H             -1.65231848        3.09332329        0.00778133
H             -2.83288112        2.11083830       -0.90343616
H             -2.86390856        2.10014279        0.86538761
H             -0.90410331       -3.43511537        0.06566768
H             -2.60012628       -2.62603488        0.08357223
H              1.38612516       -2.96727953       -0.01148883
