          24
 
C              3.36244462        0.59476260        0.01503720
N              2.24567290       -0.30803866       -0.00210558
C              2.32736735       -1.64392543       -0.00889232
N              1.06414836       -2.13076863       -0.00747954
C              0.17181719       -1.09992329       -0.00016528
C              0.92128418        0.07143887        0.00465168
C              0.29710344        1.36926598       -0.00225021
O              0.86511314        2.44020920       -0.01376482
N             -1.09961848        1.26619368        0.00252947
C             -1.86448393        2.50098795        0.00136614
C             -1.86138629        0.10900568        0.00446238
O             -3.06498583        0.14201600        0.00776248
N             -1.17611023       -1.11507078        0.00108127
C             -1.93394911       -2.34820864       -0.00222051
H              3.86575276        0.55187859        0.98341622
H              4.07872058        0.31095073       -0.75616208
H              3.00966657        1.61188741       -0.15723956
H             -1.16661787        3.33687350        0.00909006
H             -2.49841325        2.54614309       -0.88621439
H             -2.51106836        2.53890624        0.88001704
H             -1.70199065       -2.93964989        0.88485894
H             -1.71533222       -2.92708754       -0.90100157
H             -2.99273510       -2.08902503        0.00721042
H              0.84679120       -3.11648964       -0.01287247
