          21
 
N              2.25421500       -0.55911891        0.00036607
C              2.31358294       -1.85622129        0.00172954
N              1.06909846       -2.42983754       -0.00247353
C              0.17942858       -1.40578321       -0.00876206
C              0.94113717       -0.22899531       -0.00597301
C              0.30012446        1.06607880       -0.00655245
O              0.85086129        2.14431706       -0.01173505
N             -1.09316886        0.95438842       -0.00004045
C             -1.87206377        2.18300635        0.00864097
C             -1.85222267       -0.20343297        0.00562696
O             -3.05472639       -0.17431409        0.01947661
N             -1.16408736       -1.42688953       -0.00790055
C             -1.92417522       -2.65837065       -0.01668098
H              3.22153299       -2.42484367        0.00887302
H             -1.18420818        3.02389055       -0.03971356
H             -2.55079293        2.19615445       -0.84458767
H             -2.47091887        2.23662788        0.91868003
H             -1.72674352       -3.23586214        0.88697761
H             -1.67541009       -3.25127362       -0.89777052
H             -2.98063410       -2.39489337       -0.04758837
H              0.86700029       -3.41816839       -0.01277273
