 xtb: 6.6.1 (8d0f1dd)
          06052419593D

 25 26  0     0  0            999 V2000
    3.2890    0.9276    0.0894 C   0  0  0  0  0  0  0  0  0  0  0  0
    2.3783   -0.0421    0.0258 N   0  0  0  0  0  0  0  0  0  0  0  0
    2.5885   -1.3717   -0.1021 C   0  0  0  0  0  0  0  0  0  0  0  0
    1.3882   -2.0402   -0.1188 N   0  0  0  0  0  0  0  0  0  0  0  0
    0.3966   -1.1432   -0.0022 C   0  0  0  0  0  0  0  0  0  0  0  0
    0.9891    0.1311    0.0668 C   0  0  0  0  0  0  0  0  0  0  0  0
    0.1890    1.2656    0.0220 C   0  0  0  0  0  0  0  0  0  0  0  0
    0.6339    2.5109   -0.0761 O   0  0  0  0  0  0  0  0  0  0  0  0
   -1.1582    1.0639    0.0402 N   0  0  0  0  0  0  0  0  0  0  0  0
   -2.0718    2.1968    0.0220 C   0  0  0  0  0  0  0  0  0  0  0  0
   -1.7827   -0.1916    0.0652 C   0  0  0  0  0  0  0  0  0  0  0  0
   -2.9749   -0.2906    0.1049 O   0  0  0  0  0  0  0  0  0  0  0  0
   -0.9467   -1.3121    0.0211 N   0  0  0  0  0  0  0  0  0  0  0  0
   -1.5416   -2.6348    0.0035 C   0  0  0  0  0  0  0  0  0  0  0  0
    3.0549    1.8927    0.4839 H   0  0  0  0  0  0  0  0  0  0  0  0
    4.3144    0.6813   -0.0689 H   0  0  0  0  0  0  0  0  0  0  0  0
    1.5989    2.5170   -0.2237 H   0  0  0  0  0  0  0  0  0  0  0  0
    3.5466   -1.8363   -0.1773 H   0  0  0  0  0  0  0  0  0  0  0  0
   -1.5006    3.1188    0.0382 H   0  0  0  0  0  0  0  0  0  0  0  0
   -2.6899    2.1525   -0.8747 H   0  0  0  0  0  0  0  0  0  0  0  0
   -2.7285    2.1439    0.8897 H   0  0  0  0  0  0  0  0  0  0  0  0
   -1.1995   -3.2142    0.8614 H   0  0  0  0  0  0  0  0  0  0  0  0
   -1.2911   -3.1536   -0.9223 H   0  0  0  0  0  0  0  0  0  0  0  0
   -2.6219   -2.5122    0.0621 H   0  0  0  0  0  0  0  0  0  0  0  0
    1.3002   -3.0409   -0.1990 H   0  0  0  0  0  0  0  0  0  0  0  0
  1  2  4  0  0  0  0
  2  3  4  0  0  0  0
  3  4  1  0  0  0  0
  4  5  4  0  0  0  0
  2  6  1  0  0  0  0
  5  6  4  0  0  0  0
  6  7  4  0  0  0  0
  7  8  1  0  0  0  0
  7  9  4  0  0  0  0
  9 10  1  0  0  0  0
  9 11  1  0  0  0  0
 11 12  2  0  0  0  0
  5 13  1  0  0  0  0
 11 13  1  0  0  0  0
 13 14  1  0  0  0  0
  1 15  1  0  0  0  0
  1 16  1  0  0  0  0
  8 17  1  0  0  0  0
  3 18  1  0  0  0  0
 10 19  1  0  0  0  0
 10 20  1  0  0  0  0
 10 21  1  0  0  0  0
 14 22  1  0  0  0  0
 14 23  1  0  0  0  0
 14 24  1  0  0  0  0
  4 25  1  0  0  0  0
M  CHG  1   1   1
M  END
