 xtb: 6.6.1 (8d0f1dd)
          06052419593D

 25 25  0     0  0            999 V2000
    3.0825    1.1387   -0.2681 C   0  0  0  0  0  0  0  0  0  0  0  0
    2.1373    0.0713   -0.0935 N   0  0  0  0  0  0  0  0  0  0  0  0
    2.4292   -1.1912    0.1350 C   0  0  0  0  0  0  0  0  0  0  0  0
    1.3127   -1.9214    0.2485 N   0  0  0  0  0  0  0  0  0  0  0  0
    0.1840   -1.0928    0.0891 C   0  0  0  0  0  0  0  0  0  0  0  0
    0.7479    0.2121   -0.1507 C   0  0  0  0  0  0  0  0  0  0  0  0
    0.1392    1.4425   -0.3771 C   0  0  0  0  0  0  0  0  0  0  0  0
    0.5685    2.5526   -0.5141 O   0  0  0  0  0  0  0  0  0  0  0  0
   -1.4244    1.3047   -0.4589 N   0  0  0  0  0  0  0  0  0  0  0  0
   -2.1319    1.7408    0.7347 C   0  0  0  0  0  0  0  0  0  0  0  0
   -1.9070    0.9782   -1.5529 C   0  0  0  0  0  0  0  0  0  0  0  0
   -2.2029    0.6337   -2.6040 O   0  0  0  0  0  0  0  0  0  0  0  0
   -1.0463   -1.4017    0.1636 N   0  0  0  0  0  0  0  0  0  0  0  0
   -1.5145   -2.7281    0.4267 C   0  0  0  0  0  0  0  0  0  0  0  0
    2.9775    1.8694    0.5346 H   0  0  0  0  0  0  0  0  0  0  0  0
    4.0913    0.7341   -0.2647 H   0  0  0  0  0  0  0  0  0  0  0  0
    2.8971    1.6539   -1.2108 H   0  0  0  0  0  0  0  0  0  0  0  0
    3.4269   -1.5816    0.2151 H   0  0  0  0  0  0  0  0  0  0  0  0
   -1.7691    2.7299    1.0142 H   0  0  0  0  0  0  0  0  0  0  0  0
   -3.2024    1.7833    0.5479 H   0  0  0  0  0  0  0  0  0  0  0  0
   -1.9295    1.0304    1.5371 H   0  0  0  0  0  0  0  0  0  0  0  0
   -0.9650   -3.2411    1.2257 H   0  0  0  0  0  0  0  0  0  0  0  0
   -1.4596   -3.3370   -0.4800 H   0  0  0  0  0  0  0  0  0  0  0  0
   -2.5611   -2.6483    0.7157 H   0  0  0  0  0  0  0  0  0  0  0  0
    1.2801   -2.9143    0.4181 H   0  0  0  0  0  0  0  0  0  0  0  0
  1  2  1  0  0  0  0
  2  3  4  0  0  0  0
  3  4  4  0  0  0  0
  4  5  1  0  0  0  0
  2  6  1  0  0  0  0
  5  6  1  0  0  0  0
  6  7  4  0  0  0  0
  7  8  2  0  0  0  0
  7  9  1  0  0  0  0
  9 10  1  0  0  0  0
  9 11  2  0  0  0  0
 11 12  2  0  0  0  0
  5 13  2  0  0  0  0
 13 14  1  0  0  0  0
  1 15  1  0  0  0  0
  1 16  1  0  0  0  0
  1 17  1  0  0  0  0
  3 18  1  0  0  0  0
 10 19  1  0  0  0  0
 10 20  1  0  0  0  0
 10 21  1  0  0  0  0
 14 22  1  0  0  0  0
 14 23  1  0  0  0  0
 14 24  1  0  0  0  0
  4 25  1  0  0  0  0
M  CHG  1   1   1
M  END
