 xtb: 6.6.1 (8d0f1dd)
          06052419583D

 25 26  0     0  0            999 V2000
    3.2909    0.9308    0.0897 C   0  0  0  0  0  0  0  0  0  0  0  0
    2.3751   -0.0438    0.0201 N   0  0  0  0  0  0  0  0  0  0  0  0
    2.5926   -1.3760   -0.1022 C   0  0  0  0  0  0  0  0  0  0  0  0
    1.3968   -2.0480   -0.1139 N   0  0  0  0  0  0  0  0  0  0  0  0
    0.3980   -1.1444   -0.0027 C   0  0  0  0  0  0  0  0  0  0  0  0
    0.9902    0.1294    0.0597 C   0  0  0  0  0  0  0  0  0  0  0  0
    0.1897    1.2687    0.0132 C   0  0  0  0  0  0  0  0  0  0  0  0
    0.6352    2.5180   -0.0960 O   0  0  0  0  0  0  0  0  0  0  0  0
   -1.1624    1.0652    0.0406 N   0  0  0  0  0  0  0  0  0  0  0  0
   -2.0738    2.1979    0.0302 C   0  0  0  0  0  0  0  0  0  0  0  0
   -1.7814   -0.1890    0.0637 C   0  0  0  0  0  0  0  0  0  0  0  0
   -2.9777   -0.2935    0.1043 O   0  0  0  0  0  0  0  0  0  0  0  0
   -0.9457   -1.3147    0.0187 N   0  0  0  0  0  0  0  0  0  0  0  0
   -1.5442   -2.6339    0.0022 C   0  0  0  0  0  0  0  0  0  0  0  0
    3.0550    1.8798    0.5215 H   0  0  0  0  0  0  0  0  0  0  0  0
    4.3148    0.6907   -0.0832 H   0  0  0  0  0  0  0  0  0  0  0  0
    1.5969    2.5232   -0.2559 H   0  0  0  0  0  0  0  0  0  0  0  0
    3.5530   -1.8371   -0.1724 H   0  0  0  0  0  0  0  0  0  0  0  0
   -1.5006    3.1190    0.0481 H   0  0  0  0  0  0  0  0  0  0  0  0
   -2.6968    2.1597   -0.8641 H   0  0  0  0  0  0  0  0  0  0  0  0
   -2.7288    2.1428    0.8999 H   0  0  0  0  0  0  0  0  0  0  0  0
   -1.2098   -3.2128    0.8639 H   0  0  0  0  0  0  0  0  0  0  0  0
   -1.2902   -3.1577   -0.9202 H   0  0  0  0  0  0  0  0  0  0  0  0
   -2.6247   -2.5073    0.0540 H   0  0  0  0  0  0  0  0  0  0  0  0
    1.3083   -3.0489   -0.1882 H   0  0  0  0  0  0  0  0  0  0  0  0
  1  2  4  0  0  0  0
  2  3  4  0  0  0  0
  3  4  1  0  0  0  0
  4  5  4  0  0  0  0
  2  6  1  0  0  0  0
  5  6  4  0  0  0  0
  6  7  4  0  0  0  0
  7  8  1  0  0  0  0
  7  9  1  0  0  0  0
  9 10  1  0  0  0  0
  9 11  1  0  0  0  0
 11 12  2  0  0  0  0
  5 13  1  0  0  0  0
 11 13  1  0  0  0  0
 13 14  1  0  0  0  0
  1 15  1  0  0  0  0
  1 16  1  0  0  0  0
  8 17  1  0  0  0  0
  3 18  1  0  0  0  0
 10 19  1  0  0  0  0
 10 20  1  0  0  0  0
 10 21  1  0  0  0  0
 14 22  1  0  0  0  0
 14 23  1  0  0  0  0
 14 24  1  0  0  0  0
  4 25  1  0  0  0  0
M  CHG  1   1   1
M  END
