 xtb: 6.6.1 (8d0f1dd)
          06052420003D

 25 25  0     0  0            999 V2000
    2.9357    1.3139   -0.0808 C   0  0  0  0  0  0  0  0  0  0  0  0
    2.2179    0.0675   -0.0416 N   0  0  0  0  0  0  0  0  0  0  0  0
    2.7384   -1.1564    0.0467 C   0  0  0  0  0  0  0  0  0  0  0  0
    1.7417   -2.0753    0.0621 N   0  0  0  0  0  0  0  0  0  0  0  0
    0.5509   -1.4105   -0.0166 C   0  0  0  0  0  0  0  0  0  0  0  0
    0.8499   -0.0559   -0.0808 C   0  0  0  0  0  0  0  0  0  0  0  0
   -0.2040    0.9365   -0.1141 C   0  0  0  0  0  0  0  0  0  0  0  0
   -0.0786    2.1393   -0.1897 O   0  0  0  0  0  0  0  0  0  0  0  0
   -1.4525    0.3089   -0.0406 N   0  0  0  0  0  0  0  0  0  0  0  0
   -3.0161    3.3620    0.1383 C   0  0  0  0  0  0  0  0  0  0  0  0
   -1.7437   -0.9843   -0.0131 C   0  0  0  0  0  0  0  0  0  0  0  0
   -3.4021    2.2244    0.1408 O   0  0  0  0  0  0  0  0  0  0  0  0
   -0.7235   -1.8722   -0.0201 N   0  0  0  0  0  0  0  0  0  0  0  0
   -1.0166   -3.2894    0.0029 C   0  0  0  0  0  0  0  0  0  0  0  0
    3.5368    1.4344    0.8210 H   0  0  0  0  0  0  0  0  0  0  0  0
    3.5939    1.3464   -0.9495 H   0  0  0  0  0  0  0  0  0  0  0  0
    2.2136    2.1277   -0.1463 H   0  0  0  0  0  0  0  0  0  0  0  0
    3.7827   -1.3878    0.1054 H   0  0  0  0  0  0  0  0  0  0  0  0
   -2.2647    0.9689   -0.0189 H   0  0  0  0  0  0  0  0  0  0  0  0
   -3.6852    4.2024    0.3568 H   0  0  0  0  0  0  0  0  0  0  0  0
   -1.9699    3.6275   -0.0798 H   0  0  0  0  0  0  0  0  0  0  0  0
   -0.5984   -3.7564    0.8958 H   0  0  0  0  0  0  0  0  0  0  0  0
   -0.6214   -3.7793   -0.8881 H   0  0  0  0  0  0  0  0  0  0  0  0
   -2.0985   -3.3997    0.0183 H   0  0  0  0  0  0  0  0  0  0  0  0
    1.8741   -3.0743    0.1232 H   0  0  0  0  0  0  0  0  0  0  0  0
  1  2  1  0  0  0  0
  2  3  4  0  0  0  0
  3  4  4  0  0  0  0
  4  5  1  0  0  0  0
  2  6  1  0  0  0  0
  5  6  4  0  0  0  0
  6  7  1  0  0  0  0
  7  8  2  0  0  0  0
  7  9  1  0  0  0  0
  9 11  4  0  0  0  0
 10 12  2  0  0  0  0
  5 13  1  0  0  0  0
 11 13  4  0  0  0  0
 13 14  1  0  0  0  0
  1 15  1  0  0  0  0
  1 16  1  0  0  0  0
  1 17  1  0  0  0  0
  3 18  1  0  0  0  0
  9 19  1  0  0  0  0
 10 20  1  0  0  0  0
 10 21  1  0  0  0  0
 14 22  1  0  0  0  0
 14 23  1  0  0  0  0
 14 24  1  0  0  0  0
  4 25  1  0  0  0  0
M  CHG  1   1   1
M  END
