 xtb: 6.6.1 (8d0f1dd)
          04062411143D

 72 72  0     0  0            999 V2000
   -3.4425    3.2010    3.0979 N   0  0  0  0  0  0  0  0  0  0  0  0
   -3.3205    2.0563    2.6041 C   0  0  0  0  0  0  0  0  0  0  0  0
   -3.4662    1.7824    1.1194 C   0  0  0  0  0  0  0  0  0  0  0  0
   -4.1090    0.4341    0.8686 C   0  0  0  0  0  0  0  0  0  0  0  0
   -3.9298   -0.1796   -0.3716 C   0  0  0  0  0  0  0  0  0  0  0  0
   -4.5417   -1.3850   -0.6711 C   0  0  0  0  0  0  0  0  0  0  0  0
   -4.4319   -2.0468   -1.8432 O   0  0  0  0  0  0  0  0  0  0  0  0
   -3.7517   -1.4382   -2.9133 C   0  0  0  0  0  0  0  0  0  0  0  0
   -5.3631   -2.0150    0.3045 C   0  0  0  0  0  0  0  0  0  0  0  0
   -5.9051   -3.1898   -0.0681 O   0  0  0  0  0  0  0  0  0  0  0  0
   -6.7622   -3.8641    0.8236 C   0  0  0  0  0  0  0  0  0  0  0  0
   -5.5493   -1.3866    1.5269 C   0  0  0  0  0  0  0  0  0  0  0  0
   -4.9352   -0.1734    1.8015 C   0  0  0  0  0  0  0  0  0  0  0  0
   -2.0042    1.7968    0.7931 C   0  0  0  0  0  0  0  0  0  0  0  0
   -1.1841    0.7038    0.8619 C   0  0  0  0  0  0  0  0  0  0  0  0
    0.1962    0.8074    0.6853 C   0  0  0  0  0  0  0  0  0  0  0  0
    1.0715   -0.1977    0.7383 N   0  0  0  0  0  0  0  0  0  0  0  0
    2.4772    0.0319    0.5186 C   0  0  0  0  0  0  0  0  0  0  0  0
    2.9197   -0.3367   -0.9123 C   0  0  0  0  0  0  0  0  0  0  0  0
    4.3930   -0.0814   -1.0597 C   0  0  0  0  0  0  0  0  0  0  0  0
    4.8604    1.1829   -1.3860 C   0  0  0  0  0  0  0  0  0  0  0  0
    6.2194    1.4391   -1.4692 C   0  0  0  0  0  0  0  0  0  0  0  0
    7.1444    0.4332   -1.2243 C   0  0  0  0  0  0  0  0  0  0  0  0
    8.4818    0.5679   -1.2657 O   0  0  0  0  0  0  0  0  0  0  0  0
    9.0393    1.8188   -1.5969 C   0  0  0  0  0  0  0  0  0  0  0  0
    6.6751   -0.8701   -0.8979 C   0  0  0  0  0  0  0  0  0  0  0  0
    7.6379   -1.7881   -0.6894 O   0  0  0  0  0  0  0  0  0  0  0  0
    7.2772   -3.1162   -0.3929 C   0  0  0  0  0  0  0  0  0  0  0  0
    5.3100   -1.1002   -0.8161 C   0  0  0  0  0  0  0  0  0  0  0  0
    0.6349   -1.5588    0.9357 C   0  0  0  0  0  0  0  0  0  0  0  0
   -4.2892    2.8552    0.3471 C   0  0  0  0  0  0  0  0  0  0  0  0
   -5.6857    2.9875    0.9507 C   0  0  0  0  0  0  0  0  0  0  0  0
   -3.6296    4.2299    0.2815 C   0  0  0  0  0  0  0  0  0  0  0  0
   -3.3028    0.3051   -1.1037 H   0  0  0  0  0  0  0  0  0  0  0  0
   -4.1984   -0.4742   -3.1756 H   0  0  0  0  0  0  0  0  0  0  0  0
   -3.8551   -2.1236   -3.7526 H   0  0  0  0  0  0  0  0  0  0  0  0
   -2.6890   -1.2964   -2.6896 H   0  0  0  0  0  0  0  0  0  0  0  0
   -7.6403   -3.2599    1.0706 H   0  0  0  0  0  0  0  0  0  0  0  0
   -7.0795   -4.7639    0.3002 H   0  0  0  0  0  0  0  0  0  0  0  0
   -6.2419   -4.1450    1.7447 H   0  0  0  0  0  0  0  0  0  0  0  0
   -6.1848   -1.8301    2.2758 H   0  0  0  0  0  0  0  0  0  0  0  0
   -5.1238    0.3002    2.7523 H   0  0  0  0  0  0  0  0  0  0  0  0
   -0.6616    0.8281   -2.6791 H   0  0  0  0  0  0  0  0  0  0  0  0
   -1.5659    2.7668    0.6209 H   0  0  0  0  0  0  0  0  0  0  0  0
   -1.6228   -0.2647    1.0517 H   0  0  0  0  0  0  0  0  0  0  0  0
   -0.6325    0.8874   -1.9010 H   0  0  0  0  0  0  0  0  0  0  0  0
   -3.0161    1.1651    3.1695 H   0  0  0  0  0  0  0  0  0  0  0  0
    0.6171    1.7880    0.5099 H   0  0  0  0  0  0  0  0  0  0  0  0
    3.0507   -0.5625    1.2352 H   0  0  0  0  0  0  0  0  0  0  0  0
    2.7014    1.0853    0.6967 H   0  0  0  0  0  0  0  0  0  0  0  0
    2.3582    0.2714   -1.6234 H   0  0  0  0  0  0  0  0  0  0  0  0
    2.6982   -1.3870   -1.1050 H   0  0  0  0  0  0  0  0  0  0  0  0
    4.1614    1.9805   -1.5864 H   0  0  0  0  0  0  0  0  0  0  0  0
    6.5522    2.4309   -1.7278 H   0  0  0  0  0  0  0  0  0  0  0  0
    8.7587    2.5876   -0.8704 H   0  0  0  0  0  0  0  0  0  0  0  0
    8.7405    2.1370   -2.6001 H   0  0  0  0  0  0  0  0  0  0  0  0
   10.1176    1.6737   -1.5702 H   0  0  0  0  0  0  0  0  0  0  0  0
    8.2157   -3.6590   -0.3002 H   0  0  0  0  0  0  0  0  0  0  0  0
    6.7274   -3.1815    0.5512 H   0  0  0  0  0  0  0  0  0  0  0  0
    6.6809   -3.5590   -1.1966 H   0  0  0  0  0  0  0  0  0  0  0  0
    4.9465   -2.0856   -0.5697 H   0  0  0  0  0  0  0  0  0  0  0  0
   -0.0080   -1.8884    0.1159 H   0  0  0  0  0  0  0  0  0  0  0  0
    0.0779   -1.6488    1.8701 H   0  0  0  0  0  0  0  0  0  0  0  0
    1.5004   -2.2137    0.9856 H   0  0  0  0  0  0  0  0  0  0  0  0
   -4.3945    2.4749   -0.6760 H   0  0  0  0  0  0  0  0  0  0  0  0
   -5.6214    3.4219    1.9442 H   0  0  0  0  0  0  0  0  0  0  0  0
   -6.1802    2.0212    1.0162 H   0  0  0  0  0  0  0  0  0  0  0  0
   -6.2946    3.6392    0.3300 H   0  0  0  0  0  0  0  0  0  0  0  0
   -3.3527    4.5604    1.2780 H   0  0  0  0  0  0  0  0  0  0  0  0
   -2.7544    4.2317   -0.3636 H   0  0  0  0  0  0  0  0  0  0  0  0
   -4.3404    4.9420   -0.1304 H   0  0  0  0  0  0  0  0  0  0  0  0
   -3.2743    3.3083    4.0925 H   0  0  0  0  0  0  0  0  0  0  0  0
  1  2  2  0  0  0  0
  2  3  1  0  0  0  0
  3  4  1  0  0  0  0
  4  5  4  0  0  0  0
  5  6  4  0  0  0  0
  6  7  1  0  0  0  0
  7  8  1  0  0  0  0
  6  9  4  0  0  0  0
  9 10  1  0  0  0  0
 10 11  1  0  0  0  0
  9 12  4  0  0  0  0
  4 13  4  0  0  0  0
 12 13  4  0  0  0  0
  3 14  1  0  0  0  0
 14 15  2  0  0  0  0
 15 16  4  0  0  0  0
 16 17  4  0  0  0  0
 17 18  1  0  0  0  0
 18 19  1  0  0  0  0
 19 20  1  0  0  0  0
 20 21  4  0  0  0  0
 21 22  4  0  0  0  0
 22 23  4  0  0  0  0
 23 24  1  0  0  0  0
 24 25  1  0  0  0  0
 23 26  4  0  0  0  0
 26 27  1  0  0  0  0
 27 28  1  0  0  0  0
 20 29  4  0  0  0  0
 26 29  4  0  0  0  0
 17 30  1  0  0  0  0
  3 31  1  0  0  0  0
 31 32  1  0  0  0  0
 31 33  1  0  0  0  0
  5 34  1  0  0  0  0
  8 35  1  0  0  0  0
  8 36  1  0  0  0  0
  8 37  1  0  0  0  0
 11 38  1  0  0  0  0
 11 39  1  0  0  0  0
 11 40  1  0  0  0  0
 12 41  1  0  0  0  0
 13 42  1  0  0  0  0
 14 44  1  0  0  0  0
 15 45  1  0  0  0  0
 43 46  1  0  0  0  0
  2 47  1  0  0  0  0
 16 48  1  0  0  0  0
 18 49  1  0  0  0  0
 18 50  1  0  0  0  0
 19 51  1  0  0  0  0
 19 52  1  0  0  0  0
 21 53  1  0  0  0  0
 22 54  1  0  0  0  0
 25 55  1  0  0  0  0
 25 56  1  0  0  0  0
 25 57  1  0  0  0  0
 28 58  1  0  0  0  0
 28 59  1  0  0  0  0
 28 60  1  0  0  0  0
 29 61  1  0  0  0  0
 30 62  1  0  0  0  0
 30 63  1  0  0  0  0
 30 64  1  0  0  0  0
 31 65  1  0  0  0  0
 32 66  1  0  0  0  0
 32 67  1  0  0  0  0
 32 68  1  0  0  0  0
 33 69  1  0  0  0  0
 33 70  1  0  0  0  0
 33 71  1  0  0  0  0
  1 72  1  0  0  0  0
M  CHG  1   1   1
M  END
