 xtb: 6.6.1 (8d0f1dd)
          04062411113D

 72 72  0     0  0            999 V2000
   -1.8383    2.9424    2.2647 N   0  0  0  0  0  0  0  0  0  0  0  0
   -1.8326    2.1705    1.2828 C   0  0  0  0  0  0  0  0  0  0  0  0
   -2.9991    1.9348    0.3719 C   0  0  0  0  0  0  0  0  0  0  0  0
   -3.4701    0.4944    0.4675 C   0  0  0  0  0  0  0  0  0  0  0  0
   -4.3763    0.0258   -0.4598 C   0  0  0  0  0  0  0  0  0  0  0  0
   -4.8612   -1.2614   -0.4218 C   0  0  0  0  0  0  0  0  0  0  0  0
   -5.7474   -1.7511   -1.3338 O   0  0  0  0  0  0  0  0  0  0  0  0
   -6.3119   -0.9504   -2.1989 C   0  0  0  0  0  0  0  0  0  0  0  0
   -4.4301   -2.1623    0.5950 C   0  0  0  0  0  0  0  0  0  0  0  0
   -4.9591   -3.3998    0.5487 O   0  0  0  0  0  0  0  0  0  0  0  0
   -4.6456   -4.3206    1.5699 C   0  0  0  0  0  0  0  0  0  0  0  0
   -3.5240   -1.6840    1.5318 C   0  0  0  0  0  0  0  0  0  0  0  0
   -3.0542   -0.3781    1.4727 C   0  0  0  0  0  0  0  0  0  0  0  0
   -2.5004    2.1981   -1.0716 C   0  0  0  0  0  0  0  0  0  0  0  0
   -1.5576    1.1174   -1.6287 C   0  0  0  0  0  0  0  0  0  0  0  0
   -0.2135    1.1179   -1.0116 C   0  0  0  0  0  0  0  0  0  0  0  0
    0.4632    0.0365   -0.6432 N   0  0  0  0  0  0  0  0  0  0  0  0
    1.8497    0.1342   -0.2520 C   0  0  0  0  0  0  0  0  0  0  0  0
    2.7964   -0.3082   -1.3842 C   0  0  0  0  0  0  0  0  0  0  0  0
    4.2250   -0.1220   -0.9554 C   0  0  0  0  0  0  0  0  0  0  0  0
    4.8719    1.0853   -1.1618 C   0  0  0  0  0  0  0  0  0  0  0  0
    6.1797    1.2708   -0.7410 C   0  0  0  0  0  0  0  0  0  0  0  0
    6.8665    0.2507   -0.0987 C   0  0  0  0  0  0  0  0  0  0  0  0
    8.1339    0.3186    0.3500 O   0  0  0  0  0  0  0  0  0  0  0  0
    8.8689    1.5049    0.1551 C   0  0  0  0  0  0  0  0  0  0  0  0
    6.2097   -0.9915    0.1206 C   0  0  0  0  0  0  0  0  0  0  0  0
    6.9495   -1.9289    0.7467 O   0  0  0  0  0  0  0  0  0  0  0  0
    6.3949   -3.2011    0.9806 C   0  0  0  0  0  0  0  0  0  0  0  0
    4.9014   -1.1528   -0.3073 C   0  0  0  0  0  0  0  0  0  0  0  0
   -0.1218   -1.2822   -0.6856 C   0  0  0  0  0  0  0  0  0  0  0  0
   -4.2317    2.8360    0.6752 C   0  0  0  0  0  0  0  0  0  0  0  0
   -4.7931    2.5645    2.0687 C   0  0  0  0  0  0  0  0  0  0  0  0
   -3.9424    4.3251    0.5173 C   0  0  0  0  0  0  0  0  0  0  0  0
   -4.1147   -0.5868   -3.9698 H   0  0  0  0  0  0  0  0  0  0  0  0
   -6.2455    0.1202   -2.0765 H   0  0  0  0  0  0  0  0  0  0  0  0
   -7.0094   -1.4165   -2.8716 H   0  0  0  0  0  0  0  0  0  0  0  0
   -4.8014   -0.6921   -3.5647 H   0  0  0  0  0  0  0  0  0  0  0  0
   -4.9314   -3.9382    2.5537 H   0  0  0  0  0  0  0  0  0  0  0  0
   -5.2261   -5.2131    1.3453 H   0  0  0  0  0  0  0  0  0  0  0  0
   -3.5802   -4.5706    1.5684 H   0  0  0  0  0  0  0  0  0  0  0  0
   -3.1827   -2.3235    2.3304 H   0  0  0  0  0  0  0  0  0  0  0  0
   -2.3706   -0.0320    2.2346 H   0  0  0  0  0  0  0  0  0  0  0  0
   -3.3746    2.2370   -1.7205 H   0  0  0  0  0  0  0  0  0  0  0  0
   -2.0003    3.1661   -1.1066 H   0  0  0  0  0  0  0  0  0  0  0  0
   -2.0407    0.1450   -1.5502 H   0  0  0  0  0  0  0  0  0  0  0  0
   -1.4263    1.3380   -2.6962 H   0  0  0  0  0  0  0  0  0  0  0  0
   -0.9393    1.6066    0.9518 H   0  0  0  0  0  0  0  0  0  0  0  0
    0.3241    2.0544   -0.9866 H   0  0  0  0  0  0  0  0  0  0  0  0
    2.0199   -0.4910    0.6289 H   0  0  0  0  0  0  0  0  0  0  0  0
    2.0782    1.1681    0.0144 H   0  0  0  0  0  0  0  0  0  0  0  0
    2.5911    0.2967   -2.2690 H   0  0  0  0  0  0  0  0  0  0  0  0
    2.6104   -1.3544   -1.6297 H   0  0  0  0  0  0  0  0  0  0  0  0
    4.3626    1.8921   -1.6668 H   0  0  0  0  0  0  0  0  0  0  0  0
    6.6591    2.2184   -0.9234 H   0  0  0  0  0  0  0  0  0  0  0  0
    8.4032    2.3534    0.6656 H   0  0  0  0  0  0  0  0  0  0  0  0
    8.9825    1.7351   -0.9084 H   0  0  0  0  0  0  0  0  0  0  0  0
    9.8484    1.3160    0.5900 H   0  0  0  0  0  0  0  0  0  0  0  0
    7.1799   -3.7772    1.4664 H   0  0  0  0  0  0  0  0  0  0  0  0
    5.5259   -3.1443    1.6442 H   0  0  0  0  0  0  0  0  0  0  0  0
    6.1110   -3.6937    0.0455 H   0  0  0  0  0  0  0  0  0  0  0  0
    4.3966   -2.0935   -0.1523 H   0  0  0  0  0  0  0  0  0  0  0  0
   -0.2902   -1.6071   -1.7145 H   0  0  0  0  0  0  0  0  0  0  0  0
   -1.0765   -1.2935   -0.1544 H   0  0  0  0  0  0  0  0  0  0  0  0
    0.5503   -1.9880   -0.2043 H   0  0  0  0  0  0  0  0  0  0  0  0
   -4.9941    2.5472   -0.0592 H   0  0  0  0  0  0  0  0  0  0  0  0
   -4.0714    2.8576    2.8244 H   0  0  0  0  0  0  0  0  0  0  0  0
   -5.0329    1.5119    2.1975 H   0  0  0  0  0  0  0  0  0  0  0  0
   -5.7021    3.1417    2.2146 H   0  0  0  0  0  0  0  0  0  0  0  0
   -3.1409    4.6253    1.1858 H   0  0  0  0  0  0  0  0  0  0  0  0
   -3.6743    4.5809   -0.5043 H   0  0  0  0  0  0  0  0  0  0  0  0
   -4.8327    4.8916    0.7794 H   0  0  0  0  0  0  0  0  0  0  0  0
   -0.9786    3.0432    2.7955 H   0  0  0  0  0  0  0  0  0  0  0  0
  1  2  2  0  0  0  0
  2  3  1  0  0  0  0
  3  4  1  0  0  0  0
  4  5  4  0  0  0  0
  5  6  4  0  0  0  0
  6  7  1  0  0  0  0
  7  8  4  0  0  0  0
  6  9  4  0  0  0  0
  9 10  1  0  0  0  0
 10 11  1  0  0  0  0
  9 12  4  0  0  0  0
  4 13  4  0  0  0  0
 12 13  4  0  0  0  0
  3 14  1  0  0  0  0
 14 15  1  0  0  0  0
 15 16  1  0  0  0  0
 16 17  4  0  0  0  0
 17 18  1  0  0  0  0
 18 19  1  0  0  0  0
 19 20  1  0  0  0  0
 20 21  4  0  0  0  0
 21 22  4  0  0  0  0
 22 23  4  0  0  0  0
 23 24  1  0  0  0  0
 24 25  1  0  0  0  0
 23 26  4  0  0  0  0
 26 27  1  0  0  0  0
 27 28  1  0  0  0  0
 20 29  4  0  0  0  0
 26 29  4  0  0  0  0
 17 30  1  0  0  0  0
  3 31  1  0  0  0  0
 31 32  1  0  0  0  0
 31 33  1  0  0  0  0
  8 35  1  0  0  0  0
  8 36  1  0  0  0  0
 34 37  1  0  0  0  0
 11 38  1  0  0  0  0
 11 39  1  0  0  0  0
 11 40  1  0  0  0  0
 12 41  1  0  0  0  0
 13 42  1  0  0  0  0
 14 43  1  0  0  0  0
 14 44  1  0  0  0  0
 15 45  1  0  0  0  0
 15 46  1  0  0  0  0
  2 47  1  0  0  0  0
 16 48  1  0  0  0  0
 18 49  1  0  0  0  0
 18 50  1  0  0  0  0
 19 51  1  0  0  0  0
 19 52  1  0  0  0  0
 21 53  1  0  0  0  0
 22 54  1  0  0  0  0
 25 55  1  0  0  0  0
 25 56  1  0  0  0  0
 25 57  1  0  0  0  0
 28 58  1  0  0  0  0
 28 59  1  0  0  0  0
 28 60  1  0  0  0  0
 29 61  1  0  0  0  0
 30 62  1  0  0  0  0
 30 63  1  0  0  0  0
 30 64  1  0  0  0  0
 31 65  1  0  0  0  0
 32 66  1  0  0  0  0
 32 67  1  0  0  0  0
 32 68  1  0  0  0  0
 33 69  1  0  0  0  0
 33 70  1  0  0  0  0
 33 71  1  0  0  0  0
  1 72  1  0  0  0  0
M  CHG  1   1   1
M  END
