 xtb: 6.6.1 (8d0f1dd)
          04062411123D

 72 72  0     0  0            999 V2000
   -1.6506    3.2916    1.9978 N   0  0  0  0  0  0  0  0  0  0  0  0
   -1.9923    2.0932    1.6899 C   0  0  0  0  0  0  0  0  0  0  0  0
   -3.2671    1.7551    1.1877 C   0  0  0  0  0  0  0  0  0  0  0  0
   -3.5669    0.3840    0.8879 C   0  0  0  0  0  0  0  0  0  0  0  0
   -4.4810    0.0367   -0.1329 C   0  0  0  0  0  0  0  0  0  0  0  0
   -4.7803   -1.2770   -0.4304 C   0  0  0  0  0  0  0  0  0  0  0  0
   -5.6196   -1.6851   -1.4053 O   0  0  0  0  0  0  0  0  0  0  0  0
   -6.3446   -0.7257   -2.1382 C   0  0  0  0  0  0  0  0  0  0  0  0
   -4.1740   -2.3264    0.3175 C   0  0  0  0  0  0  0  0  0  0  0  0
   -4.5371   -3.5748   -0.0308 O   0  0  0  0  0  0  0  0  0  0  0  0
   -4.0631   -4.6657    0.7241 C   0  0  0  0  0  0  0  0  0  0  0  0
   -3.2772   -1.9919    1.3259 C   0  0  0  0  0  0  0  0  0  0  0  0
   -2.9703   -0.6723    1.5980 C   0  0  0  0  0  0  0  0  0  0  0  0
   -2.0946    2.2579   -2.3798 C   0  0  0  0  0  0  0  0  0  0  0  0
   -1.5698    0.9746   -1.8909 C   0  0  0  0  0  0  0  0  0  0  0  0
   -0.2527    1.0461   -1.2384 C   0  0  0  0  0  0  0  0  0  0  0  0
    0.3674   -0.0052   -0.7241 N   0  0  0  0  0  0  0  0  0  0  0  0
    1.7282    0.0929   -0.2525 C   0  0  0  0  0  0  0  0  0  0  0  0
    2.7304   -0.3713   -1.3285 C   0  0  0  0  0  0  0  0  0  0  0  0
    4.1425   -0.1508   -0.8632 C   0  0  0  0  0  0  0  0  0  0  0  0
    4.7700    1.0663   -1.0768 C   0  0  0  0  0  0  0  0  0  0  0  0
    6.0674    1.2829   -0.6403 C   0  0  0  0  0  0  0  0  0  0  0  0
    6.7646    0.2844    0.0253 C   0  0  0  0  0  0  0  0  0  0  0  0
    8.0232    0.3807    0.4890 O   0  0  0  0  0  0  0  0  0  0  0  0
    8.7364    1.5821    0.3034 C   0  0  0  0  0  0  0  0  0  0  0  0
    6.1276   -0.9676    0.2525 C   0  0  0  0  0  0  0  0  0  0  0  0
    6.8773   -1.8806    0.9003 O   0  0  0  0  0  0  0  0  0  0  0  0
    6.3494   -3.1623    1.1444 C   0  0  0  0  0  0  0  0  0  0  0  0
    4.8285   -1.1597   -0.1917 C   0  0  0  0  0  0  0  0  0  0  0  0
   -0.2308   -1.3152   -0.7836 C   0  0  0  0  0  0  0  0  0  0  0  0
   -4.3093    2.8231    1.0144 C   0  0  0  0  0  0  0  0  0  0  0  0
   -4.6623    3.4156    2.3844 C   0  0  0  0  0  0  0  0  0  0  0  0
   -3.8418    3.9287    0.0686 C   0  0  0  0  0  0  0  0  0  0  0  0
   -4.9354    0.8239   -0.7110 H   0  0  0  0  0  0  0  0  0  0  0  0
   -6.9643   -0.1059   -1.4846 H   0  0  0  0  0  0  0  0  0  0  0  0
   -6.9852   -1.2951   -2.8086 H   0  0  0  0  0  0  0  0  0  0  0  0
   -5.6819   -0.0856   -2.7290 H   0  0  0  0  0  0  0  0  0  0  0  0
   -4.3628   -4.5858    1.7732 H   0  0  0  0  0  0  0  0  0  0  0  0
   -4.5239   -5.5475    0.2834 H   0  0  0  0  0  0  0  0  0  0  0  0
   -2.9740   -4.7557    0.6609 H   0  0  0  0  0  0  0  0  0  0  0  0
   -2.8245   -2.7658    1.9253 H   0  0  0  0  0  0  0  0  0  0  0  0
   -2.3074   -0.4579    2.4211 H   0  0  0  0  0  0  0  0  0  0  0  0
   -3.0191    2.2706   -2.9179 H   0  0  0  0  0  0  0  0  0  0  0  0
   -1.5225    3.1615   -2.3147 H   0  0  0  0  0  0  0  0  0  0  0  0
   -2.3044    0.5218   -1.1987 H   0  0  0  0  0  0  0  0  0  0  0  0
   -1.5259    0.2488   -2.7224 H   0  0  0  0  0  0  0  0  0  0  0  0
   -1.2743    1.2640    1.7651 H   0  0  0  0  0  0  0  0  0  0  0  0
    0.2472    1.9983   -1.1638 H   0  0  0  0  0  0  0  0  0  0  0  0
    1.8426   -0.5203    0.6449 H   0  0  0  0  0  0  0  0  0  0  0  0
    1.9437    1.1302    0.0102 H   0  0  0  0  0  0  0  0  0  0  0  0
    2.5491    0.2022   -2.2394 H   0  0  0  0  0  0  0  0  0  0  0  0
    2.5692   -1.4277   -1.5475 H   0  0  0  0  0  0  0  0  0  0  0  0
    4.2536    1.8555   -1.6017 H   0  0  0  0  0  0  0  0  0  0  0  0
    6.5323    2.2361   -0.8307 H   0  0  0  0  0  0  0  0  0  0  0  0
    8.2370    2.4240    0.7923 H   0  0  0  0  0  0  0  0  0  0  0  0
    8.8749    1.8052   -0.7587 H   0  0  0  0  0  0  0  0  0  0  0  0
    9.7072    1.4194    0.7675 H   0  0  0  0  0  0  0  0  0  0  0  0
    7.1394   -3.7109    1.6534 H   0  0  0  0  0  0  0  0  0  0  0  0
    5.4673   -3.1168    1.7910 H   0  0  0  0  0  0  0  0  0  0  0  0
    6.0954   -3.6761    0.2120 H   0  0  0  0  0  0  0  0  0  0  0  0
    4.3410   -2.1087   -0.0314 H   0  0  0  0  0  0  0  0  0  0  0  0
   -0.3720   -1.6386   -1.8180 H   0  0  0  0  0  0  0  0  0  0  0  0
   -1.2070   -1.3083   -0.2916 H   0  0  0  0  0  0  0  0  0  0  0  0
    0.4109   -2.0319   -0.2783 H   0  0  0  0  0  0  0  0  0  0  0  0
   -5.2196    2.3708    0.6102 H   0  0  0  0  0  0  0  0  0  0  0  0
   -3.7852    3.8907    2.8127 H   0  0  0  0  0  0  0  0  0  0  0  0
   -5.0109    2.6368    3.0590 H   0  0  0  0  0  0  0  0  0  0  0  0
   -5.4494    4.1565    2.2728 H   0  0  0  0  0  0  0  0  0  0  0  0
   -2.9736    4.4240    0.4931 H   0  0  0  0  0  0  0  0  0  0  0  0
   -3.5681    3.5115   -0.9001 H   0  0  0  0  0  0  0  0  0  0  0  0
   -4.6341    4.6588   -0.0699 H   0  0  0  0  0  0  0  0  0  0  0  0
   -0.7064    3.4282    2.3374 H   0  0  0  0  0  0  0  0  0  0  0  0
  1  2  2  0  0  0  0
  2  3  4  0  0  0  0
  3  4  1  0  0  0  0
  4  5  4  0  0  0  0
  5  6  4  0  0  0  0
  6  7  1  0  0  0  0
  7  8  1  0  0  0  0
  6  9  4  0  0  0  0
  9 10  1  0  0  0  0
 10 11  1  0  0  0  0
  9 12  4  0  0  0  0
  4 13  4  0  0  0  0
 12 13  4  0  0  0  0
 14 15  1  0  0  0  0
 15 16  1  0  0  0  0
 16 17  4  0  0  0  0
 17 18  1  0  0  0  0
 18 19  1  0  0  0  0
 19 20  1  0  0  0  0
 20 21  4  0  0  0  0
 21 22  4  0  0  0  0
 22 23  4  0  0  0  0
 23 24  1  0  0  0  0
 24 25  1  0  0  0  0
 23 26  4  0  0  0  0
 26 27  1  0  0  0  0
 27 28  1  0  0  0  0
 20 29  4  0  0  0  0
 26 29  4  0  0  0  0
 17 30  1  0  0  0  0
  3 31  1  0  0  0  0
 31 32  1  0  0  0  0
 31 33  1  0  0  0  0
  5 34  1  0  0  0  0
  8 35  1  0  0  0  0
  8 36  1  0  0  0  0
  8 37  1  0  0  0  0
 11 38  1  0  0  0  0
 11 39  1  0  0  0  0
 11 40  1  0  0  0  0
 12 41  1  0  0  0  0
 13 42  1  0  0  0  0
 14 43  1  0  0  0  0
 14 44  1  0  0  0  0
 15 45  1  0  0  0  0
 15 46  1  0  0  0  0
  2 47  1  0  0  0  0
 16 48  1  0  0  0  0
 18 49  1  0  0  0  0
 18 50  1  0  0  0  0
 19 51  1  0  0  0  0
 19 52  1  0  0  0  0
 21 53  1  0  0  0  0
 22 54  1  0  0  0  0
 25 55  1  0  0  0  0
 25 56  1  0  0  0  0
 25 57  1  0  0  0  0
 28 58  1  0  0  0  0
 28 59  1  0  0  0  0
 28 60  1  0  0  0  0
 29 61  1  0  0  0  0
 30 62  1  0  0  0  0
 30 63  1  0  0  0  0
 30 64  1  0  0  0  0
 31 65  1  0  0  0  0
 32 66  1  0  0  0  0
 32 67  1  0  0  0  0
 32 68  1  0  0  0  0
 33 69  1  0  0  0  0
 33 70  1  0  0  0  0
 33 71  1  0  0  0  0
  1 72  1  0  0  0  0
M  CHG  1   1   1
M  END
