 xtb: 6.6.1 (8d0f1dd)
          06052420003D

 25 25  0     0  0            999 V2000
    3.2089    1.0129   -0.3216 C   0  0  0  0  0  0  0  0  0  0  0  0
    2.3207    0.0187   -0.2639 N   0  0  0  0  0  0  0  0  0  0  0  0
    2.5623   -1.3094   -0.2930 C   0  0  0  0  0  0  0  0  0  0  0  0
    1.3933   -1.9965   -0.1882 N   0  0  0  0  0  0  0  0  0  0  0  0
    0.3790   -1.0947   -0.0897 C   0  0  0  0  0  0  0  0  0  0  0  0
    0.9425    0.1691   -0.1354 C   0  0  0  0  0  0  0  0  0  0  0  0
    0.1419    1.3706   -0.0758 C   0  0  0  0  0  0  0  0  0  0  0  0
    0.5596    2.5030   -0.1074 O   0  0  0  0  0  0  0  0  0  0  0  0
   -1.2175    1.0642    0.0219 N   0  0  0  0  0  0  0  0  0  0  0  0
   -2.1540    2.1786    0.0643 C   0  0  0  0  0  0  0  0  0  0  0  0
   -1.8050   -0.1857    0.0761 C   0  0  0  0  0  0  0  0  0  0  0  0
   -2.9909   -0.3375    0.1607 O   0  0  0  0  0  0  0  0  0  0  0  0
   -0.9416   -1.3046    0.0264 N   0  0  0  0  0  0  0  0  0  0  0  0
   -1.5144   -2.6342    0.0844 C   0  0  0  0  0  0  0  0  0  0  0  0
    2.5362    1.8613    2.0256 H   0  0  0  0  0  0  0  0  0  0  0  0
    4.2349    0.7699   -0.5582 H   0  0  0  0  0  0  0  0  0  0  0  0
    2.8445    2.0242   -0.3488 H   0  0  0  0  0  0  0  0  0  0  0  0
    3.5296   -1.7596   -0.3859 H   0  0  0  0  0  0  0  0  0  0  0  0
   -1.5827    3.1035    0.0429 H   0  0  0  0  0  0  0  0  0  0  0  0
   -2.8256    2.1292   -0.7934 H   0  0  0  0  0  0  0  0  0  0  0  0
   -2.7547    2.1229    0.9720 H   0  0  0  0  0  0  0  0  0  0  0  0
   -1.1735   -3.1588    0.9775 H   0  0  0  0  0  0  0  0  0  0  0  0
   -1.2534   -3.2032   -0.8080 H   0  0  0  0  0  0  0  0  0  0  0  0
   -2.5971   -2.5226    0.1312 H   0  0  0  0  0  0  0  0  0  0  0  0
    1.3173   -3.0032   -0.1820 H   0  0  0  0  0  0  0  0  0  0  0  0
  1  2  4  0  0  0  0
  2  3  4  0  0  0  0
  3  4  4  0  0  0  0
  4  5  1  0  0  0  0
  2  6  1  0  0  0  0
  5  6  4  0  0  0  0
  6  7  1  0  0  0  0
  7  8  2  0  0  0  0
  7  9  1  0  0  0  0
  9 10  1  0  0  0  0
  9 11  1  0  0  0  0
 11 12  2  0  0  0  0
  5 13  4  0  0  0  0
 11 13  1  0  0  0  0
 13 14  1  0  0  0  0
  1 16  1  0  0  0  0
  1 17  1  0  0  0  0
  3 18  1  0  0  0  0
 10 19  1  0  0  0  0
 10 20  1  0  0  0  0
 10 21  1  0  0  0  0
 14 22  1  0  0  0  0
 14 23  1  0  0  0  0
 14 24  1  0  0  0  0
  4 25  1  0  0  0  0
M  CHG  1   1   1
M  END
