 xtb: 6.6.1 (8d0f1dd)
          04062411163D

 72 73  0     0  0            999 V2000
   -1.9316    2.8140    2.2614 N   0  0  0  0  0  0  0  0  0  0  0  0
   -1.8730    2.0825    1.2499 C   0  0  0  0  0  0  0  0  0  0  0  0
   -3.0109    1.8536    0.2931 C   0  0  0  0  0  0  0  0  0  0  0  0
   -3.4518    0.3960    0.3556 C   0  0  0  0  0  0  0  0  0  0  0  0
   -4.3950   -0.0576   -0.6147 C   0  0  0  0  0  0  0  0  0  0  0  0
   -4.9093   -1.3359   -0.5730 C   0  0  0  0  0  0  0  0  0  0  0  0
   -5.8353   -1.8329   -1.4242 O   0  0  0  0  0  0  0  0  0  0  0  0
   -6.3982   -0.9841   -2.3992 C   0  0  0  0  0  0  0  0  0  0  0  0
   -4.4725   -2.2500    0.4189 C   0  0  0  0  0  0  0  0  0  0  0  0
   -5.0133   -3.4507    0.4117 O   0  0  0  0  0  0  0  0  0  0  0  0
   -4.7480   -4.4220    1.2305 C   0  0  0  0  0  0  0  0  0  0  0  0
   -3.4521   -1.8655    1.4449 C   0  0  0  0  0  0  0  0  0  0  0  0
   -3.0014   -0.4461    1.3122 C   0  0  0  0  0  0  0  0  0  0  0  0
   -2.4475    2.1788   -1.1153 C   0  0  0  0  0  0  0  0  0  0  0  0
   -1.4919    1.1142   -1.6832 C   0  0  0  0  0  0  0  0  0  0  0  0
   -0.1616    1.1053   -1.0335 C   0  0  0  0  0  0  0  0  0  0  0  0
    0.5152    0.0172   -0.6705 N   0  0  0  0  0  0  0  0  0  0  0  0
    1.8976    0.1100   -0.2658 C   0  0  0  0  0  0  0  0  0  0  0  0
    2.8575   -0.3490   -1.3805 C   0  0  0  0  0  0  0  0  0  0  0  0
    4.2807   -0.1488   -0.9402 C   0  0  0  0  0  0  0  0  0  0  0  0
    4.9288    1.0520   -1.1754 C   0  0  0  0  0  0  0  0  0  0  0  0
    6.2310    1.2526   -0.7434 C   0  0  0  0  0  0  0  0  0  0  0  0
    6.9100    0.2543   -0.0608 C   0  0  0  0  0  0  0  0  0  0  0  0
    8.1720    0.3382    0.4035 O   0  0  0  0  0  0  0  0  0  0  0  0
    8.9061    1.5203    0.1831 C   0  0  0  0  0  0  0  0  0  0  0  0
    6.2522   -0.9810    0.1880 C   0  0  0  0  0  0  0  0  0  0  0  0
    6.9862   -1.8969    0.8539 O   0  0  0  0  0  0  0  0  0  0  0  0
    6.4311   -3.1620    1.1204 C   0  0  0  0  0  0  0  0  0  0  0  0
    4.9504   -1.1583   -0.2521 C   0  0  0  0  0  0  0  0  0  0  0  0
   -0.0600   -1.3026   -0.7533 C   0  0  0  0  0  0  0  0  0  0  0  0
   -4.2517    2.7481    0.5864 C   0  0  0  0  0  0  0  0  0  0  0  0
   -4.8755    2.4173    1.9404 C   0  0  0  0  0  0  0  0  0  0  0  0
   -3.9456    4.2419    0.5128 C   0  0  0  0  0  0  0  0  0  0  0  0
   -4.7348    0.6268   -1.3709 H   0  0  0  0  0  0  0  0  0  0  0  0
   -6.8955   -0.1241   -1.9415 H   0  0  0  0  0  0  0  0  0  0  0  0
   -7.1354   -1.5905   -2.9215 H   0  0  0  0  0  0  0  0  0  0  0  0
   -5.6449   -0.6373   -3.1132 H   0  0  0  0  0  0  0  0  0  0  0  0
   -3.8472   -2.0231    2.4550 H   0  0  0  0  0  0  0  0  0  0  0  0
   -5.3058   -5.3233    1.0664 H   0  0  0  0  0  0  0  0  0  0  0  0
   -4.0447   -4.3407    2.0399 H   0  0  0  0  0  0  0  0  0  0  0  0
   -2.5826   -2.5448    1.3624 H   0  0  0  0  0  0  0  0  0  0  0  0
   -2.3195   -0.1063    2.0756 H   0  0  0  0  0  0  0  0  0  0  0  0
   -3.2799    2.2905   -1.8093 H   0  0  0  0  0  0  0  0  0  0  0  0
   -1.9268    3.1359   -1.0709 H   0  0  0  0  0  0  0  0  0  0  0  0
   -1.9688    0.1365   -1.6436 H   0  0  0  0  0  0  0  0  0  0  0  0
   -1.3373    1.3636   -2.7415 H   0  0  0  0  0  0  0  0  0  0  0  0
   -0.9545    1.5608    0.9196 H   0  0  0  0  0  0  0  0  0  0  0  0
    0.3711    2.0426   -0.9777 H   0  0  0  0  0  0  0  0  0  0  0  0
    2.0540   -0.5079    0.6233 H   0  0  0  0  0  0  0  0  0  0  0  0
    2.1285    1.1449   -0.0062 H   0  0  0  0  0  0  0  0  0  0  0  0
    2.6591    0.2393   -2.2779 H   0  0  0  0  0  0  0  0  0  0  0  0
    2.6786   -1.4003   -1.6089 H   0  0  0  0  0  0  0  0  0  0  0  0
    4.4252    1.8420   -1.7115 H   0  0  0  0  0  0  0  0  0  0  0  0
    6.7116    2.1949   -0.9491 H   0  0  0  0  0  0  0  0  0  0  0  0
    8.4329    2.3818    0.6643 H   0  0  0  0  0  0  0  0  0  0  0  0
    9.0309    1.7211   -0.8853 H   0  0  0  0  0  0  0  0  0  0  0  0
    9.8813    1.3464    0.6337 H   0  0  0  0  0  0  0  0  0  0  0  0
    7.2084   -3.7181    1.6410 H   0  0  0  0  0  0  0  0  0  0  0  0
    5.5490   -3.0864    1.7646 H   0  0  0  0  0  0  0  0  0  0  0  0
    6.1673   -3.6878    0.1974 H   0  0  0  0  0  0  0  0  0  0  0  0
    4.4453   -2.0951   -0.0750 H   0  0  0  0  0  0  0  0  0  0  0  0
   -0.1435   -1.6363   -1.7905 H   0  0  0  0  0  0  0  0  0  0  0  0
   -1.0536   -1.3076   -0.3014 H   0  0  0  0  0  0  0  0  0  0  0  0
    0.5731   -2.0029   -0.2135 H   0  0  0  0  0  0  0  0  0  0  0  0
   -4.9927    2.5193   -0.1879 H   0  0  0  0  0  0  0  0  0  0  0  0
   -4.1800    2.6559    2.7381 H   0  0  0  0  0  0  0  0  0  0  0  0
   -5.1416    1.3651    2.0045 H   0  0  0  0  0  0  0  0  0  0  0  0
   -5.7777    3.0073    2.0789 H   0  0  0  0  0  0  0  0  0  0  0  0
   -3.1866    4.5077    1.2417 H   0  0  0  0  0  0  0  0  0  0  0  0
   -3.6135    4.5407   -0.4779 H   0  0  0  0  0  0  0  0  0  0  0  0
   -4.8484    4.8016    0.7430 H   0  0  0  0  0  0  0  0  0  0  0  0
   -1.0871    2.9192    2.8153 H   0  0  0  0  0  0  0  0  0  0  0  0
  1  2  2  0  0  0  0
  2  3  1  0  0  0  0
  3  4  1  0  0  0  0
  4  5  4  0  0  0  0
  5  6  4  0  0  0  0
  6  7  1  0  0  0  0
  7  8  1  0  0  0  0
  6  9  4  0  0  0  0
  9 10  1  0  0  0  0
 10 11  4  0  0  0  0
  9 12  1  0  0  0  0
  4 13  2  0  0  0  0
 12 13  1  0  0  0  0
  3 14  1  0  0  0  0
 14 15  1  0  0  0  0
 15 16  1  0  0  0  0
 16 17  4  0  0  0  0
 17 18  1  0  0  0  0
 18 19  1  0  0  0  0
 19 20  1  0  0  0  0
 20 21  4  0  0  0  0
 21 22  4  0  0  0  0
 22 23  4  0  0  0  0
 23 24  1  0  0  0  0
 24 25  1  0  0  0  0
 23 26  4  0  0  0  0
 26 27  1  0  0  0  0
 27 28  1  0  0  0  0
 20 29  4  0  0  0  0
 26 29  4  0  0  0  0
 17 30  1  0  0  0  0
  3 31  1  0  0  0  0
 31 32  1  0  0  0  0
 31 33  1  0  0  0  0
  5 34  1  0  0  0  0
  8 35  1  0  0  0  0
  8 36  1  0  0  0  0
  8 37  1  0  0  0  0
 12 38  1  0  0  0  0
 11 39  1  0  0  0  0
 11 40  1  0  0  0  0
 12 41  1  0  0  0  0
 13 42  1  0  0  0  0
 14 43  1  0  0  0  0
 14 44  1  0  0  0  0
 15 45  1  0  0  0  0
 15 46  1  0  0  0  0
  2 47  1  0  0  0  0
 16 48  1  0  0  0  0
 18 49  1  0  0  0  0
 18 50  1  0  0  0  0
 19 51  1  0  0  0  0
 19 52  1  0  0  0  0
 21 53  1  0  0  0  0
 22 54  1  0  0  0  0
 25 55  1  0  0  0  0
 25 56  1  0  0  0  0
 25 57  1  0  0  0  0
 28 58  1  0  0  0  0
 28 59  1  0  0  0  0
 28 60  1  0  0  0  0
 29 61  1  0  0  0  0
 30 62  1  0  0  0  0
 30 63  1  0  0  0  0
 30 64  1  0  0  0  0
 31 65  1  0  0  0  0
 32 66  1  0  0  0  0
 32 67  1  0  0  0  0
 32 68  1  0  0  0  0
 33 69  1  0  0  0  0
 33 70  1  0  0  0  0
 33 71  1  0  0  0  0
  1 72  1  0  0  0  0
M  CHG  1   1   1
M  END
