          24
 
C              3.21676060        1.12296822        0.01710463
N              2.26325592        0.04802071       -0.00053520
C              2.55761392       -1.25478659       -0.00862950
N              1.38909843       -1.93950951       -0.00730750
C              0.33980929       -1.06604206        0.00113391
C              0.89734037        0.20779064        0.00625482
C              0.07017093        1.39351878       -0.00204804
O              0.46393094        2.53631302       -0.01452523
N             -1.28787665        1.06781571        0.00135692
C             -2.24005377        2.16709895       -0.00300914
C             -1.85864698       -0.19394194        0.00406520
O             -3.04872751       -0.35472692        0.00662380
N             -0.98405271       -1.29595550        0.00212780
C             -1.53901598       -2.63302286       -0.00125809
H              3.71833833        1.16483643        0.98576870
H              3.96955931        0.96384719       -0.75449426
H              2.69964729        2.06615311       -0.15553954
H             -1.68363684        3.10200220        0.00403279
H             -2.87092475        2.10846689       -0.89103087
H             -2.88505389        2.10214186        0.87423120
H             -1.21803044       -3.18022705        0.88578897
H             -1.23129028       -3.17054907       -0.89895729
H             -2.62430648       -2.54197413        0.00703769
H              1.33749685       -2.94752244       -0.01359323
