 xtb: 6.6.1 (8d0f1dd)
          06052420003D

 25 25  0     0  0            999 V2000
    2.9360    1.0929   -0.2784 C   0  0  0  0  0  0  0  0  0  0  0  0
    2.1221   -0.0690   -0.0387 N   0  0  0  0  0  0  0  0  0  0  0  0
    2.5733   -1.3041    0.1131 C   0  0  0  0  0  0  0  0  0  0  0  0
    1.5424   -2.1335    0.3133 N   0  0  0  0  0  0  0  0  0  0  0  0
    0.3668   -1.4062    0.2610 C   0  0  0  0  0  0  0  0  0  0  0  0
    0.7470   -0.0867    0.0112 C   0  0  0  0  0  0  0  0  0  0  0  0
   -0.0626    1.1563    0.1271 C   0  0  0  0  0  0  0  0  0  0  0  0
    0.3943    2.1249    0.6934 O   0  0  0  0  0  0  0  0  0  0  0  0
   -1.3449    1.1068   -0.3568 N   0  0  0  0  0  0  0  0  0  0  0  0
   -2.2816    2.1342    0.0631 C   0  0  0  0  0  0  0  0  0  0  0  0
   -1.7953    0.2260   -1.3219 C   0  0  0  0  0  0  0  0  0  0  0  0
   -2.9298    0.1884   -1.6899 O   0  0  0  0  0  0  0  0  0  0  0  0
   -0.8789   -1.8976    0.3288 N   0  0  0  0  0  0  0  0  0  0  0  0
   -1.2902   -2.8937    0.9982 C   0  0  0  0  0  0  0  0  0  0  0  0
    3.9641    0.8873    0.0105 H   0  0  0  0  0  0  0  0  0  0  0  0
    2.9070    1.3616   -1.3363 H   0  0  0  0  0  0  0  0  0  0  0  0
    2.5478    1.9319    0.3012 H   0  0  0  0  0  0  0  0  0  0  0  0
    3.6052   -1.5964    0.0742 H   0  0  0  0  0  0  0  0  0  0  0  0
   -1.8245    2.7339    0.8462 H   0  0  0  0  0  0  0  0  0  0  0  0
   -2.5454    2.7718   -0.7812 H   0  0  0  0  0  0  0  0  0  0  0  0
   -3.1918    1.6574    0.4270 H   0  0  0  0  0  0  0  0  0  0  0  0
   -0.6970   -3.4468    1.7255 H   0  0  0  0  0  0  0  0  0  0  0  0
   -0.9969   -0.3916   -1.7545 H   0  0  0  0  0  0  0  0  0  0  0  0
   -2.3157   -3.1962    0.8520 H   0  0  0  0  0  0  0  0  0  0  0  0
    1.6093   -3.1335    0.4430 H   0  0  0  0  0  0  0  0  0  0  0  0
  1  2  1  0  0  0  0
  2  3  4  0  0  0  0
  3  4  4  0  0  0  0
  4  5  1  0  0  0  0
  2  6  1  0  0  0  0
  5  6  4  0  0  0  0
  6  7  1  0  0  0  0
  7  8  2  0  0  0  0
  7  9  1  0  0  0  0
  9 10  1  0  0  0  0
  9 11  1  0  0  0  0
 11 12  2  0  0  0  0
  5 13  4  0  0  0  0
 13 14  2  0  0  0  0
  1 15  1  0  0  0  0
  1 16  1  0  0  0  0
  1 17  1  0  0  0  0
  3 18  1  0  0  0  0
 10 19  1  0  0  0  0
 10 20  1  0  0  0  0
 10 21  1  0  0  0  0
 14 22  1  0  0  0  0
 11 23  1  0  0  0  0
 14 24  1  0  0  0  0
  4 25  1  0  0  0  0
M  CHG  1   1   1
M  END
