 xtb: 6.6.1 (8d0f1dd)
          06052420003D

 25 26  0     0  0            999 V2000
    3.3043    1.1144    0.0118 C   0  0  0  0  0  0  0  0  0  0  0  0
    2.3187    0.0680    0.0071 N   0  0  0  0  0  0  0  0  0  0  0  0
    2.5496   -1.2510    0.0234 C   0  0  0  0  0  0  0  0  0  0  0  0
    1.3670   -1.9229    0.0229 N   0  0  0  0  0  0  0  0  0  0  0  0
    0.3593   -1.0043    0.0093 C   0  0  0  0  0  0  0  0  0  0  0  0
    0.9487    0.2622   -0.0035 C   0  0  0  0  0  0  0  0  0  0  0  0
    0.2056    1.4669   -0.0465 C   0  0  0  0  0  0  0  0  0  0  0  0
    0.6069    2.6101   -0.0717 O   0  0  0  0  0  0  0  0  0  0  0  0
   -1.2443    1.2038   -0.0840 N   0  0  0  0  0  0  0  0  0  0  0  0
   -2.0137    2.2998   -0.1824 C   0  0  0  0  0  0  0  0  0  0  0  0
   -1.7569   -0.0470    0.0261 C   0  0  0  0  0  0  0  0  0  0  0  0
   -3.0854   -0.2627    0.0706 O   0  0  0  0  0  0  0  0  0  0  0  0
   -0.9778   -1.1824    0.0312 N   0  0  0  0  0  0  0  0  0  0  0  0
   -1.5606   -2.5087    0.0535 C   0  0  0  0  0  0  0  0  0  0  0  0
    3.8859    1.0853    0.9351 H   0  0  0  0  0  0  0  0  0  0  0  0
    3.9828    1.0024   -0.8346 H   0  0  0  0  0  0  0  0  0  0  0  0
    2.7914    2.0728   -0.0585 H   0  0  0  0  0  0  0  0  0  0  0  0
    3.5134   -1.7149    0.0314 H   0  0  0  0  0  0  0  0  0  0  0  0
   -1.5075    3.2431   -0.2044 H   0  0  0  0  0  0  0  0  0  0  0  0
   -3.0744    2.2343   -0.3223 H   0  0  0  0  0  0  0  0  0  0  0  0
   -3.5761    0.5013    0.4004 H   0  0  0  0  0  0  0  0  0  0  0  0
   -1.1967   -3.0621    0.9205 H   0  0  0  0  0  0  0  0  0  0  0  0
   -1.3050   -3.0452   -0.8614 H   0  0  0  0  0  0  0  0  0  0  0  0
   -2.6412   -2.4189    0.1169 H   0  0  0  0  0  0  0  0  0  0  0  0
    1.2663   -2.9260    0.0402 H   0  0  0  0  0  0  0  0  0  0  0  0
  1  2  1  0  0  0  0
  2  3  4  0  0  0  0
  3  4  4  0  0  0  0
  4  5  1  0  0  0  0
  2  6  1  0  0  0  0
  5  6  4  0  0  0  0
  6  7  1  0  0  0  0
  7  8  2  0  0  0  0
  7  9  1  0  0  0  0
  9 10  4  0  0  0  0
  9 11  4  0  0  0  0
 11 12  1  0  0  0  0
  5 13  1  0  0  0  0
 11 13  1  0  0  0  0
 13 14  1  0  0  0  0
  1 15  1  0  0  0  0
  1 16  1  0  0  0  0
  1 17  1  0  0  0  0
  3 18  1  0  0  0  0
 10 19  1  0  0  0  0
 10 20  1  0  0  0  0
 12 21  1  0  0  0  0
 14 22  1  0  0  0  0
 14 23  1  0  0  0  0
 14 24  1  0  0  0  0
  4 25  1  0  0  0  0
M  CHG  1   1   1
M  END
