 xtb: 6.6.1 (8d0f1dd)
          04062411123D

 72 72  0     0  0            999 V2000
   -2.2870    2.7266    1.6141 N   0  0  0  0  0  0  0  0  0  0  0  0
   -1.9925    2.6947    0.2818 C   0  0  0  0  0  0  0  0  0  0  0  0
   -2.3504    1.7319   -0.5959 C   0  0  0  0  0  0  0  0  0  0  0  0
   -3.1078    0.5422   -0.1972 C   0  0  0  0  0  0  0  0  0  0  0  0
   -4.1570    0.0602   -0.9888 C   0  0  0  0  0  0  0  0  0  0  0  0
   -4.8805   -1.0610   -0.6264 C   0  0  0  0  0  0  0  0  0  0  0  0
   -5.9151   -1.5810   -1.3231 O   0  0  0  0  0  0  0  0  0  0  0  0
   -6.3538   -0.9244   -2.4891 C   0  0  0  0  0  0  0  0  0  0  0  0
   -4.5477   -1.7556    0.5682 C   0  0  0  0  0  0  0  0  0  0  0  0
   -5.3058   -2.8390    0.8385 O   0  0  0  0  0  0  0  0  0  0  0  0
   -5.0705   -3.5598    2.0247 C   0  0  0  0  0  0  0  0  0  0  0  0
   -3.4996   -1.2843    1.3443 C   0  0  0  0  0  0  0  0  0  0  0  0
   -2.7902   -0.1533    0.9682 C   0  0  0  0  0  0  0  0  0  0  0  0
   -1.9638    1.8629   -2.0428 C   0  0  0  0  0  0  0  0  0  0  0  0
   -1.0352    0.7089   -2.4952 C   0  0  0  0  0  0  0  0  0  0  0  0
    0.2762    0.7940   -1.8260 C   0  0  0  0  0  0  0  0  0  0  0  0
    0.7872   -0.0993   -0.9924 N   0  0  0  0  0  0  0  0  0  0  0  0
    2.1353    0.0603   -0.5016 C   0  0  0  0  0  0  0  0  0  0  0  0
    3.1464   -0.7185   -1.3662 C   0  0  0  0  0  0  0  0  0  0  0  0
    4.5507   -0.4334   -0.9134 C   0  0  0  0  0  0  0  0  0  0  0  0
    5.1792    0.7440   -1.2847 C   0  0  0  0  0  0  0  0  0  0  0  0
    6.4653    1.0290   -0.8536 C   0  0  0  0  0  0  0  0  0  0  0  0
    7.1506    0.1383   -0.0406 C   0  0  0  0  0  0  0  0  0  0  0  0
    8.3993    0.3110    0.4359 O   0  0  0  0  0  0  0  0  0  0  0  0
    9.1018    1.4865    0.1048 C   0  0  0  0  0  0  0  0  0  0  0  0
    6.5168   -1.0751    0.3406 C   0  0  0  0  0  0  0  0  0  0  0  0
    7.2584   -1.8893    1.1200 O   0  0  0  0  0  0  0  0  0  0  0  0
    6.7345   -3.1375    1.5049 C   0  0  0  0  0  0  0  0  0  0  0  0
    5.2273   -1.3348   -0.0959 C   0  0  0  0  0  0  0  0  0  0  0  0
    0.1261   -1.3501   -0.7083 C   0  0  0  0  0  0  0  0  0  0  0  0
   -5.5856    3.0202    1.5760 C   0  0  0  0  0  0  0  0  0  0  0  0
   -5.4679    1.8541    2.1897 C   0  0  0  0  0  0  0  0  0  0  0  0
   -5.5193    4.3462    2.2522 C   0  0  0  0  0  0  0  0  0  0  0  0
   -4.4289    0.5989   -1.8806 H   0  0  0  0  0  0  0  0  0  0  0  0
   -6.6779    0.0987   -2.2747 H   0  0  0  0  0  0  0  0  0  0  0  0
   -7.2032   -1.5023   -2.8481 H   0  0  0  0  0  0  0  0  0  0  0  0
   -5.5751   -0.9093   -3.2599 H   0  0  0  0  0  0  0  0  0  0  0  0
   -5.2310   -2.9370    2.9103 H   0  0  0  0  0  0  0  0  0  0  0  0
   -5.7935   -4.3731    2.0200 H   0  0  0  0  0  0  0  0  0  0  0  0
   -4.0584   -3.9759    2.0491 H   0  0  0  0  0  0  0  0  0  0  0  0
   -3.2269   -1.7927    2.2554 H   0  0  0  0  0  0  0  0  0  0  0  0
   -1.9665    0.1757    1.5828 H   0  0  0  0  0  0  0  0  0  0  0  0
   -2.8513    1.8430   -2.6768 H   0  0  0  0  0  0  0  0  0  0  0  0
   -1.4610    2.8160   -2.2081 H   0  0  0  0  0  0  0  0  0  0  0  0
   -1.5301   -0.2428   -2.3119 H   0  0  0  0  0  0  0  0  0  0  0  0
   -0.8806    0.8176   -3.5736 H   0  0  0  0  0  0  0  0  0  0  0  0
   -1.4036    3.5313   -0.0720 H   0  0  0  0  0  0  0  0  0  0  0  0
    0.8552    1.6906   -1.9840 H   0  0  0  0  0  0  0  0  0  0  0  0
    2.1861   -0.2923    0.5311 H   0  0  0  0  0  0  0  0  0  0  0  0
    2.4000    1.1191   -0.5134 H   0  0  0  0  0  0  0  0  0  0  0  0
    3.0228   -0.4064   -2.4053 H   0  0  0  0  0  0  0  0  0  0  0  0
    2.9394   -1.7868   -1.3002 H   0  0  0  0  0  0  0  0  0  0  0  0
    4.6726    1.4473   -1.9282 H   0  0  0  0  0  0  0  0  0  0  0  0
    6.9300    1.9502   -1.1646 H   0  0  0  0  0  0  0  0  0  0  0  0
    8.5819    2.3791    0.4661 H   0  0  0  0  0  0  0  0  0  0  0  0
    9.2611    1.5676   -0.9749 H   0  0  0  0  0  0  0  0  0  0  0  0
   10.0643    1.4022    0.6057 H   0  0  0  0  0  0  0  0  0  0  0  0
    7.5172   -3.6141    2.0919 H   0  0  0  0  0  0  0  0  0  0  0  0
    5.8381   -3.0244    2.1232 H   0  0  0  0  0  0  0  0  0  0  0  0
    6.5038   -3.7612    0.6355 H   0  0  0  0  0  0  0  0  0  0  0  0
    4.7382   -2.2539    0.1867 H   0  0  0  0  0  0  0  0  0  0  0  0
    0.0707   -1.9803   -1.5988 H   0  0  0  0  0  0  0  0  0  0  0  0
   -0.8863   -1.1705   -0.3407 H   0  0  0  0  0  0  0  0  0  0  0  0
    0.6826   -1.8828    0.0586 H   0  0  0  0  0  0  0  0  0  0  0  0
   -5.7344    3.0535    0.5033 H   0  0  0  0  0  0  0  0  0  0  0  0
   -3.0647    2.1548    1.9177 H   0  0  0  0  0  0  0  0  0  0  0  0
   -5.5308    0.9182    1.6601 H   0  0  0  0  0  0  0  0  0  0  0  0
   -5.3296    1.7899    3.2574 H   0  0  0  0  0  0  0  0  0  0  0  0
   -5.3219    4.2402    3.3164 H   0  0  0  0  0  0  0  0  0  0  0  0
   -4.7415    4.9637    1.7994 H   0  0  0  0  0  0  0  0  0  0  0  0
   -6.4622    4.8766    2.1239 H   0  0  0  0  0  0  0  0  0  0  0  0
   -2.2236    3.6207    2.0695 H   0  0  0  0  0  0  0  0  0  0  0  0
  1  2  4  0  0  0  0
  2  3  2  0  0  0  0
  3  4  1  0  0  0  0
  4  5  4  0  0  0  0
  5  6  4  0  0  0  0
  6  7  1  0  0  0  0
  7  8  1  0  0  0  0
  6  9  4  0  0  0  0
  9 10  1  0  0  0  0
 10 11  1  0  0  0  0
  9 12  4  0  0  0  0
  4 13  4  0  0  0  0
 12 13  4  0  0  0  0
  3 14  1  0  0  0  0
 14 15  1  0  0  0  0
 15 16  1  0  0  0  0
 16 17  4  0  0  0  0
 17 18  1  0  0  0  0
 18 19  1  0  0  0  0
 19 20  1  0  0  0  0
 20 21  4  0  0  0  0
 21 22  4  0  0  0  0
 22 23  4  0  0  0  0
 23 24  1  0  0  0  0
 24 25  1  0  0  0  0
 23 26  4  0  0  0  0
 26 27  1  0  0  0  0
 27 28  1  0  0  0  0
 20 29  4  0  0  0  0
 26 29  4  0  0  0  0
 17 30  1  0  0  0  0
 31 32  2  0  0  0  0
 31 33  1  0  0  0  0
  5 34  1  0  0  0  0
  8 35  1  0  0  0  0
  8 36  1  0  0  0  0
  8 37  1  0  0  0  0
 11 38  1  0  0  0  0
 11 39  1  0  0  0  0
 11 40  1  0  0  0  0
 12 41  1  0  0  0  0
 13 42  1  0  0  0  0
 14 43  1  0  0  0  0
 14 44  1  0  0  0  0
 15 45  1  0  0  0  0
 15 46  1  0  0  0  0
  2 47  1  0  0  0  0
 16 48  1  0  0  0  0
 18 49  1  0  0  0  0
 18 50  1  0  0  0  0
 19 51  1  0  0  0  0
 19 52  1  0  0  0  0
 21 53  1  0  0  0  0
 22 54  1  0  0  0  0
 25 55  1  0  0  0  0
 25 56  1  0  0  0  0
 25 57  1  0  0  0  0
 28 58  1  0  0  0  0
 28 59  1  0  0  0  0
 28 60  1  0  0  0  0
 29 61  1  0  0  0  0
 30 62  1  0  0  0  0
 30 63  1  0  0  0  0
 30 64  1  0  0  0  0
 31 65  1  0  0  0  0
  1 66  1  0  0  0  0
 32 67  1  0  0  0  0
 32 68  1  0  0  0  0
 33 69  1  0  0  0  0
 33 70  1  0  0  0  0
 33 71  1  0  0  0  0
  1 72  1  0  0  0  0
M  CHG  1   1   1
M  END
