 xtb: 6.6.1 (8d0f1dd)
          06052419583D

 25 24  0     0  0            999 V2000
    3.3097    1.1318   -0.0396 C   0  0  0  0  0  0  0  0  0  0  0  0
    2.3533    0.0546   -0.0215 N   0  0  0  0  0  0  0  0  0  0  0  0
    2.6698   -1.2346   -0.0396 C   0  0  0  0  0  0  0  0  0  0  0  0
    1.5604   -1.9793    0.0130 N   0  0  0  0  0  0  0  0  0  0  0  0
    0.4424   -1.1305    0.0673 C   0  0  0  0  0  0  0  0  0  0  0  0
    0.9962    0.1804    0.0483 C   0  0  0  0  0  0  0  0  0  0  0  0
    0.2484    1.4447    0.0568 C   0  0  0  0  0  0  0  0  0  0  0  0
    0.7974    2.5410   -0.0889 O   0  0  0  0  0  0  0  0  0  0  0  0
   -1.0510    1.2660    0.2431 N   0  0  0  0  0  0  0  0  0  0  0  0
   -2.0345    2.2433    0.2462 C   0  0  0  0  0  0  0  0  0  0  0  0
   -4.2248    0.3975   -0.8737 C   0  0  0  0  0  0  0  0  0  0  0  0
   -4.1302   -0.7212   -0.7923 O   0  0  0  0  0  0  0  0  0  0  0  0
   -0.7981   -1.4448    0.1099 N   0  0  0  0  0  0  0  0  0  0  0  0
   -1.3399   -2.7476    0.1339 C   0  0  0  0  0  0  0  0  0  0  0  0
    3.8424    1.1762    0.9113 H   0  0  0  0  0  0  0  0  0  0  0  0
    4.0298    0.9804   -0.8425 H   0  0  0  0  0  0  0  0  0  0  0  0
    2.7777    2.0726   -0.1913 H   0  0  0  0  0  0  0  0  0  0  0  0
    3.6726   -1.6161   -0.0903 H   0  0  0  0  0  0  0  0  0  0  0  0
   -1.7352    3.1559   -0.2893 H   0  0  0  0  0  0  0  0  0  0  0  0
   -2.9391    1.8155   -0.2300 H   0  0  0  0  0  0  0  0  0  0  0  0
   -2.3121    2.5048    1.2757 H   0  0  0  0  0  0  0  0  0  0  0  0
   -0.9687   -3.3348    0.9820 H   0  0  0  0  0  0  0  0  0  0  0  0
   -1.1199   -3.2944   -0.7907 H   0  0  0  0  0  0  0  0  0  0  0  0
   -2.4220   -2.6547    0.2261 H   0  0  0  0  0  0  0  0  0  0  0  0
    1.5357   -2.9883    0.0072 H   0  0  0  0  0  0  0  0  0  0  0  0
  1  2  1  0  0  0  0
  2  3  4  0  0  0  0
  3  4  4  0  0  0  0
  4  5  1  0  0  0  0
  2  6  4  0  0  0  0
  5  6  4  0  0  0  0
  6  7  1  0  0  0  0
  7  8  2  0  0  0  0
  7  9  4  0  0  0  0
  9 10  1  0  0  0  0
 11 12  3  0  0  0  0
  5 13  2  0  0  0  0
 13 14  1  0  0  0  0
  1 15  1  0  0  0  0
  1 16  1  0  0  0  0
  1 17  1  0  0  0  0
  3 18  1  0  0  0  0
 10 19  1  0  0  0  0
 10 20  1  0  0  0  0
 10 21  1  0  0  0  0
 14 22  1  0  0  0  0
 14 23  1  0  0  0  0
 14 24  1  0  0  0  0
  4 25  1  0  0  0  0
M  CHG  1   1   1
M  END
