 xtb: 6.6.1 (8d0f1dd)
          04062411123D

 72 72  0     0  0            999 V2000
   -1.8679    2.8190    2.2620 N   0  0  0  0  0  0  0  0  0  0  0  0
   -1.8123    2.1237    1.2260 C   0  0  0  0  0  0  0  0  0  0  0  0
   -2.9617    1.9133    0.2776 C   0  0  0  0  0  0  0  0  0  0  0  0
   -3.4321    0.4692    0.3604 C   0  0  0  0  0  0  0  0  0  0  0  0
   -4.3622   -0.0123   -0.5540 C   0  0  0  0  0  0  0  0  0  0  0  0
   -4.8357   -1.3209   -0.4805 C   0  0  0  0  0  0  0  0  0  0  0  0
   -5.7537   -1.8634   -1.3131 O   0  0  0  0  0  0  0  0  0  0  0  0
   -6.3035   -1.2788   -2.3420 C   0  0  0  0  0  0  0  0  0  0  0  0
   -4.3660   -2.1927    0.5396 C   0  0  0  0  0  0  0  0  0  0  0  0
   -4.8806   -3.4354    0.5272 O   0  0  0  0  0  0  0  0  0  0  0  0
   -4.4976   -4.3465    1.5335 C   0  0  0  0  0  0  0  0  0  0  0  0
   -3.4360   -1.7013    1.4428 C   0  0  0  0  0  0  0  0  0  0  0  0
   -2.9803   -0.3921    1.3546 C   0  0  0  0  0  0  0  0  0  0  0  0
   -2.4066    2.2110   -1.1404 C   0  0  0  0  0  0  0  0  0  0  0  0
   -1.4756    1.1232   -1.7071 C   0  0  0  0  0  0  0  0  0  0  0  0
   -0.1350    1.1071   -1.0801 C   0  0  0  0  0  0  0  0  0  0  0  0
    0.5300    0.0187   -0.7068 N   0  0  0  0  0  0  0  0  0  0  0  0
    1.9104    0.1076   -0.2919 C   0  0  0  0  0  0  0  0  0  0  0  0
    2.8790   -0.3455   -1.4014 C   0  0  0  0  0  0  0  0  0  0  0  0
    4.2983   -0.1443   -0.9477 C   0  0  0  0  0  0  0  0  0  0  0  0
    4.9384    1.0666   -1.1561 C   0  0  0  0  0  0  0  0  0  0  0  0
    6.2358    1.2706   -0.7124 C   0  0  0  0  0  0  0  0  0  0  0  0
    6.9193    0.2650   -0.0443 C   0  0  0  0  0  0  0  0  0  0  0  0
    8.1762    0.3481    0.4285 O   0  0  0  0  0  0  0  0  0  0  0  0
    8.9088    1.5358    0.2323 C   0  0  0  0  0  0  0  0  0  0  0  0
    6.2692   -0.9808    0.1780 C   0  0  0  0  0  0  0  0  0  0  0  0
    7.0068   -1.9001    0.8316 O   0  0  0  0  0  0  0  0  0  0  0  0
    6.4643   -3.1756    1.0757 C   0  0  0  0  0  0  0  0  0  0  0  0
    4.9713   -1.1607   -0.2737 C   0  0  0  0  0  0  0  0  0  0  0  0
   -0.0638   -1.2957   -0.7570 C   0  0  0  0  0  0  0  0  0  0  0  0
   -4.1795    2.8396    0.5744 C   0  0  0  0  0  0  0  0  0  0  0  0
   -4.8222    2.5085    1.9194 C   0  0  0  0  0  0  0  0  0  0  0  0
   -3.8295    4.3242    0.5237 C   0  0  0  0  0  0  0  0  0  0  0  0
   -4.7436    0.6415   -1.3207 H   0  0  0  0  0  0  0  0  0  0  0  0
   -8.6206    0.1234   -3.6345 H   0  0  0  0  0  0  0  0  0  0  0  0
   -7.0374   -1.8648   -2.8594 H   0  0  0  0  0  0  0  0  0  0  0  0
   -6.0955   -0.2682   -2.6415 H   0  0  0  0  0  0  0  0  0  0  0  0
   -4.7482   -3.9712    2.5294 H   0  0  0  0  0  0  0  0  0  0  0  0
   -5.0653   -5.2535    1.3363 H   0  0  0  0  0  0  0  0  0  0  0  0
   -3.4276   -4.5702    1.4829 H   0  0  0  0  0  0  0  0  0  0  0  0
   -3.0663   -2.3272    2.2387 H   0  0  0  0  0  0  0  0  0  0  0  0
   -2.2829   -0.0411    2.0988 H   0  0  0  0  0  0  0  0  0  0  0  0
   -3.2440    2.3311   -1.8266 H   0  0  0  0  0  0  0  0  0  0  0  0
   -1.8675    3.1583   -1.1123 H   0  0  0  0  0  0  0  0  0  0  0  0
   -1.9620    0.1514   -1.6425 H   0  0  0  0  0  0  0  0  0  0  0  0
   -1.3363    1.3540   -2.7715 H   0  0  0  0  0  0  0  0  0  0  0  0
   -0.8935    1.6183    0.8708 H   0  0  0  0  0  0  0  0  0  0  0  0
    0.4105    2.0386   -1.0495 H   0  0  0  0  0  0  0  0  0  0  0  0
    2.0589   -0.5148    0.5949 H   0  0  0  0  0  0  0  0  0  0  0  0
    2.1409    1.1411   -0.0256 H   0  0  0  0  0  0  0  0  0  0  0  0
    2.6879    0.2469   -2.2978 H   0  0  0  0  0  0  0  0  0  0  0  0
    2.7036   -1.3958   -1.6371 H   0  0  0  0  0  0  0  0  0  0  0  0
    4.4316    1.8623   -1.6809 H   0  0  0  0  0  0  0  0  0  0  0  0
    6.7097    2.2207   -0.8966 H   0  0  0  0  0  0  0  0  0  0  0  0
    8.4329    2.3868    0.7290 H   0  0  0  0  0  0  0  0  0  0  0  0
    9.0356    1.7569   -0.8316 H   0  0  0  0  0  0  0  0  0  0  0  0
    9.8832    1.3548    0.6819 H   0  0  0  0  0  0  0  0  0  0  0  0
    7.2456   -3.7310    1.5908 H   0  0  0  0  0  0  0  0  0  0  0  0
    5.5789   -3.1193    1.7172 H   0  0  0  0  0  0  0  0  0  0  0  0
    6.2102   -3.6891    0.1433 H   0  0  0  0  0  0  0  0  0  0  0  0
    4.4735   -2.1050   -0.1169 H   0  0  0  0  0  0  0  0  0  0  0  0
   -0.2294   -1.6161   -1.7881 H   0  0  0  0  0  0  0  0  0  0  0  0
   -1.0202   -1.3029   -0.2283 H   0  0  0  0  0  0  0  0  0  0  0  0
    0.6019   -2.0082   -0.2764 H   0  0  0  0  0  0  0  0  0  0  0  0
   -4.9199    2.6413   -0.2090 H   0  0  0  0  0  0  0  0  0  0  0  0
   -4.1266    2.7166    2.7256 H   0  0  0  0  0  0  0  0  0  0  0  0
   -5.1197    1.4638    1.9694 H   0  0  0  0  0  0  0  0  0  0  0  0
   -5.7081    3.1220    2.0589 H   0  0  0  0  0  0  0  0  0  0  0  0
   -3.0805    4.5616    1.2726 H   0  0  0  0  0  0  0  0  0  0  0  0
   -3.4662    4.6234   -0.4558 H   0  0  0  0  0  0  0  0  0  0  0  0
   -4.7210    4.9069    0.7395 H   0  0  0  0  0  0  0  0  0  0  0  0
   -1.0221    2.9154    2.8149 H   0  0  0  0  0  0  0  0  0  0  0  0
  1  2  2  0  0  0  0
  2  3  1  0  0  0  0
  3  4  1  0  0  0  0
  4  5  4  0  0  0  0
  5  6  4  0  0  0  0
  6  7  1  0  0  0  0
  7  8  4  0  0  0  0
  6  9  4  0  0  0  0
  9 10  1  0  0  0  0
 10 11  1  0  0  0  0
  9 12  4  0  0  0  0
  4 13  4  0  0  0  0
 12 13  4  0  0  0  0
  3 14  1  0  0  0  0
 14 15  1  0  0  0  0
 15 16  1  0  0  0  0
 16 17  4  0  0  0  0
 17 18  1  0  0  0  0
 18 19  1  0  0  0  0
 19 20  1  0  0  0  0
 20 21  4  0  0  0  0
 21 22  4  0  0  0  0
 22 23  4  0  0  0  0
 23 24  1  0  0  0  0
 24 25  1  0  0  0  0
 23 26  4  0  0  0  0
 26 27  1  0  0  0  0
 27 28  1  0  0  0  0
 20 29  4  0  0  0  0
 26 29  4  0  0  0  0
 17 30  1  0  0  0  0
  3 31  1  0  0  0  0
 31 32  1  0  0  0  0
 31 33  1  0  0  0  0
  5 34  1  0  0  0  0
  8 36  1  0  0  0  0
  8 37  1  0  0  0  0
 11 38  1  0  0  0  0
 11 39  1  0  0  0  0
 11 40  1  0  0  0  0
 12 41  1  0  0  0  0
 13 42  1  0  0  0  0
 14 43  1  0  0  0  0
 14 44  1  0  0  0  0
 15 45  1  0  0  0  0
 15 46  1  0  0  0  0
  2 47  1  0  0  0  0
 16 48  1  0  0  0  0
 18 49  1  0  0  0  0
 18 50  1  0  0  0  0
 19 51  1  0  0  0  0
 19 52  1  0  0  0  0
 21 53  1  0  0  0  0
 22 54  1  0  0  0  0
 25 55  1  0  0  0  0
 25 56  1  0  0  0  0
 25 57  1  0  0  0  0
 28 58  1  0  0  0  0
 28 59  1  0  0  0  0
 28 60  1  0  0  0  0
 29 61  1  0  0  0  0
 30 62  1  0  0  0  0
 30 63  1  0  0  0  0
 30 64  1  0  0  0  0
 31 65  1  0  0  0  0
 32 66  1  0  0  0  0
 32 67  1  0  0  0  0
 32 68  1  0  0  0  0
 33 69  1  0  0  0  0
 33 70  1  0  0  0  0
 33 71  1  0  0  0  0
  1 72  1  0  0  0  0
M  CHG  1   1   1
M  END
