 xtb: 6.6.1 (8d0f1dd)
          06052420003D

 25 25  0     0  0            999 V2000
    2.7901    1.2464   -0.0807 C   0  0  0  0  0  0  0  0  0  0  0  0
    1.9462    0.0860    0.0065 N   0  0  0  0  0  0  0  0  0  0  0  0
    2.3555   -1.1628    0.1883 C   0  0  0  0  0  0  0  0  0  0  0  0
    1.2833   -1.9724    0.2023 N   0  0  0  0  0  0  0  0  0  0  0  0
    0.1598   -1.2016    0.0233 C   0  0  0  0  0  0  0  0  0  0  0  0
    0.5777    0.1077   -0.0893 C   0  0  0  0  0  0  0  0  0  0  0  0
   -0.1172    1.4276   -0.3986 C   0  0  0  0  0  0  0  0  0  0  0  0
    0.2920    2.0414   -1.3850 O   0  0  0  0  0  0  0  0  0  0  0  0
   -1.0301    1.7636    0.4721 N   0  0  0  0  0  0  0  0  0  0  0  0
   -1.6724    3.0298    0.4177 C   0  0  0  0  0  0  0  0  0  0  0  0
   -2.1852   -1.0750   -0.1271 C   0  0  0  0  0  0  0  0  0  0  0  0
   -3.3278   -0.8749   -0.2111 O   0  0  0  0  0  0  0  0  0  0  0  0
   -1.1116   -1.7821   -0.0571 N   0  0  0  0  0  0  0  0  0  0  0  0
   -1.2037   -3.2554   -0.1059 C   0  0  0  0  0  0  0  0  0  0  0  0
    2.7050    1.8417    0.8299 H   0  0  0  0  0  0  0  0  0  0  0  0
    3.8238    0.9408   -0.2203 H   0  0  0  0  0  0  0  0  0  0  0  0
    2.4628    1.8621   -0.9215 H   0  0  0  0  0  0  0  0  0  0  0  0
    3.3727   -1.4808    0.3015 H   0  0  0  0  0  0  0  0  0  0  0  0
   -0.9849    3.8615    0.6493 H   0  0  0  0  0  0  0  0  0  0  0  0
   -2.0910    3.2215   -0.5769 H   0  0  0  0  0  0  0  0  0  0  0  0
   -2.4752    3.0261    1.1548 H   0  0  0  0  0  0  0  0  0  0  0  0
   -0.8717   -3.6860    0.8395 H   0  0  0  0  0  0  0  0  0  0  0  0
   -0.6124   -3.6376   -0.9385 H   0  0  0  0  0  0  0  0  0  0  0  0
   -2.2432   -3.5356   -0.2638 H   0  0  0  0  0  0  0  0  0  0  0  0
    1.3178   -2.9739    0.3219 H   0  0  0  0  0  0  0  0  0  0  0  0
  1  2  1  0  0  0  0
  2  3  4  0  0  0  0
  3  4  4  0  0  0  0
  4  5  1  0  0  0  0
  2  6  1  0  0  0  0
  5  6  4  0  0  0  0
  6  7  1  0  0  0  0
  7  8  2  0  0  0  0
  7  9  4  0  0  0  0
  9 10  1  0  0  0  0
 11 12  2  0  0  0  0
  5 13  1  0  0  0  0
 11 13  4  0  0  0  0
 13 14  1  0  0  0  0
  1 15  1  0  0  0  0
  1 16  1  0  0  0  0
  1 17  1  0  0  0  0
  3 18  1  0  0  0  0
 10 19  1  0  0  0  0
 10 20  1  0  0  0  0
 10 21  1  0  0  0  0
 14 22  1  0  0  0  0
 14 23  1  0  0  0  0
 14 24  1  0  0  0  0
  4 25  1  0  0  0  0
M  CHG  1   1   1
M  END
