           5
 
C             -2.74628026        4.11277517       -0.38285852
O             -2.66815704        2.87360271       -0.12013749
H             -1.71043386        2.51059606        0.06514001
H             -3.73499689        4.50853216       -0.58574209
H             -1.88198012        4.76292035       -0.43913096
