 xtb: 6.6.1 (8d0f1dd)
          04062411143D

 72 73  0     0  0            999 V2000
   -1.6010    2.2799    2.2732 N   0  0  0  0  0  0  0  0  0  0  0  0
   -1.6775    1.5246    1.2809 C   0  0  0  0  0  0  0  0  0  0  0  0
   -2.8585    1.4822    0.3505 C   0  0  0  0  0  0  0  0  0  0  0  0
   -3.4136    0.0702    0.3014 C   0  0  0  0  0  0  0  0  0  0  0  0
   -4.3007   -0.3013   -0.7083 C   0  0  0  0  0  0  0  0  0  0  0  0
   -4.8877   -1.5569   -0.7312 C   0  0  0  0  0  0  0  0  0  0  0  0
   -5.7601   -1.9911   -1.6596 O   0  0  0  0  0  0  0  0  0  0  0  0
   -6.1754   -1.1175   -2.6829 C   0  0  0  0  0  0  0  0  0  0  0  0
   -4.5791   -2.4942    0.2954 C   0  0  0  0  0  0  0  0  0  0  0  0
   -5.2029   -3.6810    0.2025 O   0  0  0  0  0  0  0  0  0  0  0  0
   -4.9865   -4.6544    1.1986 C   0  0  0  0  0  0  0  0  0  0  0  0
   -3.6904   -2.1184    1.2932 C   0  0  0  0  0  0  0  0  0  0  0  0
   -3.1211   -0.8545    1.2965 C   0  0  0  0  0  0  0  0  0  0  0  0
   -2.3072    1.9138   -1.0342 C   0  0  0  0  0  0  0  0  0  0  0  0
   -1.3960    0.8972   -1.7407 C   0  0  0  0  0  0  0  0  0  0  0  0
    0.1088    1.2039   -1.6478 C   0  0  0  0  0  0  0  0  0  0  0  0
    0.7298    0.6138   -0.4735 N   0  0  0  0  0  0  0  0  0  0  0  0
    1.7482    1.4270    0.1894 C   0  0  0  0  0  0  0  0  0  0  0  0
    2.9539    1.6968   -0.6507 C   0  0  0  0  0  0  0  0  0  0  0  0
    4.1969    1.0958   -0.5534 C   0  0  0  0  0  0  0  0  0  0  0  0
    5.2376    1.5193   -1.4292 C   0  0  0  0  0  0  0  0  0  0  0  0
    6.4948    0.9778   -1.3697 C   0  0  0  0  0  0  0  0  0  0  0  0
    6.7987   -0.0281   -0.4468 C   0  0  0  0  0  0  0  0  0  0  0  0
    7.9825   -0.6240   -0.3011 O   0  0  0  0  0  0  0  0  0  0  0  0
    9.0740   -0.2298   -1.1026 C   0  0  0  0  0  0  0  0  0  0  0  0
    5.7685   -0.4876    0.4375 C   0  0  0  0  0  0  0  0  0  0  0  0
    6.1560   -1.4689    1.2765 O   0  0  0  0  0  0  0  0  0  0  0  0
    5.2267   -1.9976    2.1925 C   0  0  0  0  0  0  0  0  0  0  0  0
    4.5141    0.0682    0.3802 C   0  0  0  0  0  0  0  0  0  0  0  0
    1.1043   -0.7699   -0.6408 C   0  0  0  0  0  0  0  0  0  0  0  0
   -4.0253    2.4253    0.7716 C   0  0  0  0  0  0  0  0  0  0  0  0
   -4.5891    2.0480    2.1390 C   0  0  0  0  0  0  0  0  0  0  0  0
   -3.6435    3.9029    0.7667 C   0  0  0  0  0  0  0  0  0  0  0  0
   -4.5431    0.4052   -1.4843 H   0  0  0  0  0  0  0  0  0  0  0  0
   -6.6658   -0.2282   -2.2755 H   0  0  0  0  0  0  0  0  0  0  0  0
   -6.8912   -1.6829   -3.2767 H   0  0  0  0  0  0  0  0  0  0  0  0
   -5.3370   -0.8159   -3.3186 H   0  0  0  0  0  0  0  0  0  0  0  0
   -5.3060   -4.2973    2.1820 H   0  0  0  0  0  0  0  0  0  0  0  0
   -5.5953   -5.5087    0.9095 H   0  0  0  0  0  0  0  0  0  0  0  0
   -3.9355   -4.9559    1.2425 H   0  0  0  0  0  0  0  0  0  0  0  0
   -3.4447   -2.8039    2.0879 H   0  0  0  0  0  0  0  0  0  0  0  0
   -2.4582   -0.5874    2.1048 H   0  0  0  0  0  0  0  0  0  0  0  0
   -3.1605    2.1295   -1.6767 H   0  0  0  0  0  0  0  0  0  0  0  0
   -1.7662    2.8512   -0.9049 H   0  0  0  0  0  0  0  0  0  0  0  0
   -1.5878   -0.1050   -1.3554 H   0  0  0  0  0  0  0  0  0  0  0  0
   -1.6557    0.8880   -2.7999 H   0  0  0  0  0  0  0  0  0  0  0  0
   -0.8676    0.8597    0.9530 H   0  0  0  0  0  0  0  0  0  0  0  0
    0.2515    2.2859   -1.6112 H   0  0  0  0  0  0  0  0  0  0  0  0
    2.0171    0.9146    1.1162 H   0  0  0  0  0  0  0  0  0  0  0  0
    1.2764    2.3814    0.4513 H   0  0  0  0  0  0  0  0  0  0  0  0
    2.8202    2.4297   -1.4337 H   0  0  0  0  0  0  0  0  0  0  0  0
    0.5934    0.8337   -2.5626 H   0  0  0  0  0  0  0  0  0  0  0  0
    5.0238    2.2944   -2.1482 H   0  0  0  0  0  0  0  0  0  0  0  0
    7.2561    1.3337   -2.0458 H   0  0  0  0  0  0  0  0  0  0  0  0
    9.3038    0.8307   -0.9702 H   0  0  0  0  0  0  0  0  0  0  0  0
    8.8882   -0.4358   -2.1611 H   0  0  0  0  0  0  0  0  0  0  0  0
    9.9176   -0.8270   -0.7608 H   0  0  0  0  0  0  0  0  0  0  0  0
    5.7622   -2.7711    2.7389 H   0  0  0  0  0  0  0  0  0  0  0  0
    4.8789   -1.2335    2.8948 H   0  0  0  0  0  0  0  0  0  0  0  0
    4.3693   -2.4450    1.6797 H   0  0  0  0  0  0  0  0  0  0  0  0
    3.7461   -0.2812    1.0495 H   0  0  0  0  0  0  0  0  0  0  0  0
    1.9777   -0.8951   -1.2976 H   0  0  0  0  0  0  0  0  0  0  0  0
    0.2677   -1.3171   -1.0738 H   0  0  0  0  0  0  0  0  0  0  0  0
    1.3363   -1.2051    0.3313 H   0  0  0  0  0  0  0  0  0  0  0  0
   -4.8193    2.2771    0.0295 H   0  0  0  0  0  0  0  0  0  0  0  0
   -3.8418    2.2184    2.9086 H   0  0  0  0  0  0  0  0  0  0  0  0
   -4.8948    1.0045    2.1668 H   0  0  0  0  0  0  0  0  0  0  0  0
   -5.4572    2.6641    2.3592 H   0  0  0  0  0  0  0  0  0  0  0  0
   -2.8059    4.0763    1.4361 H   0  0  0  0  0  0  0  0  0  0  0  0
   -3.3881    4.2540   -0.2296 H   0  0  0  0  0  0  0  0  0  0  0  0
   -4.4879    4.4900    1.1187 H   0  0  0  0  0  0  0  0  0  0  0  0
   -0.7492    2.2667    2.8243 H   0  0  0  0  0  0  0  0  0  0  0  0
  1  2  2  0  0  0  0
  2  3  1  0  0  0  0
  3  4  1  0  0  0  0
  4  5  4  0  0  0  0
  5  6  4  0  0  0  0
  6  7  1  0  0  0  0
  7  8  1  0  0  0  0
  6  9  4  0  0  0  0
  9 10  1  0  0  0  0
 10 11  1  0  0  0  0
  9 12  4  0  0  0  0
  4 13  4  0  0  0  0
 12 13  4  0  0  0  0
  3 14  1  0  0  0  0
 14 15  1  0  0  0  0
 15 16  1  0  0  0  0
 16 17  1  0  0  0  0
 17 18  1  0  0  0  0
 18 19  1  0  0  0  0
 19 20  4  0  0  0  0
 20 21  4  0  0  0  0
 21 22  2  0  0  0  0
 22 23  4  0  0  0  0
 23 24  1  0  0  0  0
 24 25  1  0  0  0  0
 23 26  1  0  0  0  0
 26 27  1  0  0  0  0
 27 28  1  0  0  0  0
 20 29  4  0  0  0  0
 26 29  4  0  0  0  0
 17 30  1  0  0  0  0
  3 31  1  0  0  0  0
 31 32  1  0  0  0  0
 31 33  1  0  0  0  0
  5 34  1  0  0  0  0
  8 35  1  0  0  0  0
  8 36  1  0  0  0  0
  8 37  1  0  0  0  0
 11 38  1  0  0  0  0
 11 39  1  0  0  0  0
 11 40  1  0  0  0  0
 12 41  1  0  0  0  0
 13 42  1  0  0  0  0
 14 43  1  0  0  0  0
 14 44  1  0  0  0  0
 15 45  1  0  0  0  0
 15 46  1  0  0  0  0
  2 47  1  0  0  0  0
 16 48  1  0  0  0  0
 18 49  1  0  0  0  0
 18 50  1  0  0  0  0
 19 51  1  0  0  0  0
 16 52  1  0  0  0  0
 21 53  1  0  0  0  0
 22 54  1  0  0  0  0
 25 55  1  0  0  0  0
 25 56  1  0  0  0  0
 25 57  1  0  0  0  0
 28 58  1  0  0  0  0
 28 59  1  0  0  0  0
 28 60  1  0  0  0  0
 29 61  1  0  0  0  0
 30 62  1  0  0  0  0
 30 63  1  0  0  0  0
 30 64  1  0  0  0  0
 31 65  1  0  0  0  0
 32 66  1  0  0  0  0
 32 67  1  0  0  0  0
 32 68  1  0  0  0  0
 33 69  1  0  0  0  0
 33 70  1  0  0  0  0
 33 71  1  0  0  0  0
  1 72  1  0  0  0  0
M  CHG  1   1   1
M  END
