 xtb: 6.6.1 (8d0f1dd)
          06052419583D

 25 25  0     0  0            999 V2000
    3.1787    0.8344    0.0766 C   0  0  0  0  0  0  0  0  0  0  0  0
    2.2707   -0.1334    0.0454 N   0  0  0  0  0  0  0  0  0  0  0  0
    2.4834   -1.4691    0.0265 C   0  0  0  0  0  0  0  0  0  0  0  0
    1.2940   -2.1219   -0.0011 N   0  0  0  0  0  0  0  0  0  0  0  0
    0.2959   -1.1918   -0.0012 C   0  0  0  0  0  0  0  0  0  0  0  0
    0.8916    0.0547    0.0291 C   0  0  0  0  0  0  0  0  0  0  0  0
    0.1156    1.2782    0.0434 C   0  0  0  0  0  0  0  0  0  0  0  0
    0.5687    2.3967    0.0609 O   0  0  0  0  0  0  0  0  0  0  0  0
   -1.2502    0.9999    0.0393 N   0  0  0  0  0  0  0  0  0  0  0  0
   -2.1645    2.1361    0.0769 C   0  0  0  0  0  0  0  0  0  0  0  0
   -1.8721   -0.2341    0.0042 C   0  0  0  0  0  0  0  0  0  0  0  0
   -3.0623   -0.3600   -0.0040 O   0  0  0  0  0  0  0  0  0  0  0  0
   -1.0308   -1.3753   -0.0207 N   0  0  0  0  0  0  0  0  0  0  0  0
   -1.6343   -2.6929   -0.0553 C   0  0  0  0  0  0  0  0  0  0  0  0
    2.8333    1.8535    0.0836 H   0  0  0  0  0  0  0  0  0  0  0  0
    4.2227    0.5826    0.0870 H   0  0  0  0  0  0  0  0  0  0  0  0
    3.9685    4.1330   -0.5403 H   0  0  0  0  0  0  0  0  0  0  0  0
    3.4439   -1.9413    0.0370 H   0  0  0  0  0  0  0  0  0  0  0  0
   -1.5699    3.0450    0.1147 H   0  0  0  0  0  0  0  0  0  0  0  0
   -2.7951    2.1326   -0.8109 H   0  0  0  0  0  0  0  0  0  0  0  0
   -2.8039    2.0633    0.9561 H   0  0  0  0  0  0  0  0  0  0  0  0
   -1.3349   -3.2734    0.8179 H   0  0  0  0  0  0  0  0  0  0  0  0
   -1.3580   -3.2178   -0.9702 H   0  0  0  0  0  0  0  0  0  0  0  0
   -2.7148   -2.5555   -0.0378 H   0  0  0  0  0  0  0  0  0  0  0  0
    1.1844   -3.1252   -0.0259 H   0  0  0  0  0  0  0  0  0  0  0  0
  1  2  4  0  0  0  0
  2  3  4  0  0  0  0
  3  4  4  0  0  0  0
  4  5  1  0  0  0  0
  2  6  1  0  0  0  0
  5  6  4  0  0  0  0
  6  7  1  0  0  0  0
  7  8  2  0  0  0  0
  7  9  1  0  0  0  0
  9 10  1  0  0  0  0
  9 11  1  0  0  0  0
 11 12  2  0  0  0  0
  5 13  4  0  0  0  0
 11 13  1  0  0  0  0
 13 14  1  0  0  0  0
  1 15  1  0  0  0  0
  1 16  1  0  0  0  0
  3 18  1  0  0  0  0
 10 19  1  0  0  0  0
 10 20  1  0  0  0  0
 10 21  1  0  0  0  0
 14 22  1  0  0  0  0
 14 23  1  0  0  0  0
 14 24  1  0  0  0  0
  4 25  1  0  0  0  0
M  CHG  1   1   1
M  END
