          24
 
C              3.37217956        0.62348455        0.01056442
N              2.26983541       -0.29887249        0.00215103
C              2.34655537       -1.63408436       -0.00343702
N              1.10056343       -2.16672659       -0.01048022
C              0.20014728       -1.13217730       -0.00837364
C              0.93869323        0.04867709       -0.00222635
C              0.31739719        1.34636572       -0.00155648
O              0.89200501        2.41753540        0.00045165
N             -1.08142965        1.24305025       -0.00436962
C             -1.84081774        2.48569031       -0.01590722
C             -1.84707254        0.10624686        0.00889822
O             -3.04811900        0.12318986        0.02814531
N             -1.15868830       -1.16703763       -0.00282776
C             -1.91017569       -2.28436412       -0.00676885
H              4.01191476        0.44260541        0.87481148
H              3.96868358        0.51236122       -0.89593941
H              2.97781853        1.63849463        0.05728226
H              3.25399549       -2.20305225       -0.00371955
H             -1.13341082        3.31223307       -0.02049760
H             -2.47401331        2.52393423       -0.90256092
H             -2.48031106        2.53892295        0.86527268
H             -1.44864376       -3.24881266       -0.03447952
H             -2.99134797       -2.16530289        0.00566814
H              0.89456434       -3.15433909       -0.01129866
