 xtb: 6.6.1 (8d0f1dd)
          06052420003D

 25 26  0     0  0            999 V2000
    3.2624    1.1917   -0.0205 C   0  0  0  0  0  0  0  0  0  0  0  0
    2.1917    0.2786   -0.0309 N   0  0  0  0  0  0  0  0  0  0  0  0
    3.4768   -0.2866   -0.0681 C   0  0  0  0  0  0  0  0  0  0  0  0
    1.1522   -2.2060   -0.0776 N   0  0  0  0  0  0  0  0  0  0  0  0
    0.3388   -1.2297   -0.0424 C   0  0  0  0  0  0  0  0  0  0  0  0
    0.9114    0.1100   -0.0164 C   0  0  0  0  0  0  0  0  0  0  0  0
    0.0579    1.3162    0.0368 C   0  0  0  0  0  0  0  0  0  0  0  0
    0.5364    2.4283    0.0557 O   0  0  0  0  0  0  0  0  0  0  0  0
   -1.2902    1.0621    0.0628 N   0  0  0  0  0  0  0  0  0  0  0  0
   -2.2075    2.1873    0.1203 C   0  0  0  0  0  0  0  0  0  0  0  0
   -1.8831   -0.1969    0.0340 C   0  0  0  0  0  0  0  0  0  0  0  0
   -3.0786   -0.3145    0.0566 O   0  0  0  0  0  0  0  0  0  0  0  0
   -1.0387   -1.3007   -0.0216 N   0  0  0  0  0  0  0  0  0  0  0  0
   -1.6671   -2.6111   -0.0483 C   0  0  0  0  0  0  0  0  0  0  0  0
    3.4405    1.7328    0.9035 H   0  0  0  0  0  0  0  0  0  0  0  0
    3.3913    1.8036   -0.9068 H   0  0  0  0  0  0  0  0  0  0  0  0
    3.7900   -0.7694   -0.9815 H   0  0  0  0  0  0  0  0  0  0  0  0
    3.7985   -0.8075    0.8273 H   0  0  0  0  0  0  0  0  0  0  0  0
   -1.6240    3.1051    0.1338 H   0  0  0  0  0  0  0  0  0  0  0  0
   -2.8689    2.1699   -0.7468 H   0  0  0  0  0  0  0  0  0  0  0  0
   -2.8243    2.1157    1.0170 H   0  0  0  0  0  0  0  0  0  0  0  0
   -1.3732   -3.1907    0.8287 H   0  0  0  0  0  0  0  0  0  0  0  0
   -1.3872   -3.1469   -0.9567 H   0  0  0  0  0  0  0  0  0  0  0  0
   -2.7464   -2.4697   -0.0355 H   0  0  0  0  0  0  0  0  0  0  0  0
    0.8018   -3.1533   -0.0922 H   0  0  0  0  0  0  0  0  0  0  0  0
  1  2  1  0  0  0  0
  1  3  1  0  0  0  0
  2  3  1  0  0  0  0
  4  5  2  0  0  0  0
  2  6  2  0  0  0  0
  5  6  1  0  0  0  0
  6  7  1  0  0  0  0
  7  8  2  0  0  0  0
  7  9  1  0  0  0  0
  9 10  1  0  0  0  0
  9 11  1  0  0  0  0
 11 12  2  0  0  0  0
  5 13  1  0  0  0  0
 11 13  1  0  0  0  0
 13 14  1  0  0  0  0
  1 15  1  0  0  0  0
  1 16  1  0  0  0  0
  3 17  1  0  0  0  0
  3 18  1  0  0  0  0
 10 19  1  0  0  0  0
 10 20  1  0  0  0  0
 10 21  1  0  0  0  0
 14 22  1  0  0  0  0
 14 23  1  0  0  0  0
 14 24  1  0  0  0  0
  4 25  1  0  0  0  0
M  CHG  1   1   1
M  END
