 xtb: 6.6.1 (8d0f1dd)
          04062411123D

 72 72  0     0  0            999 V2000
   -1.9040    2.8424    2.1680 N   0  0  0  0  0  0  0  0  0  0  0  0
   -1.8634    2.1214    1.1502 C   0  0  0  0  0  0  0  0  0  0  0  0
   -3.0219    1.8691    0.2278 C   0  0  0  0  0  0  0  0  0  0  0  0
   -3.4729    0.4227    0.3589 C   0  0  0  0  0  0  0  0  0  0  0  0
   -4.4008   -0.0803   -0.5435 C   0  0  0  0  0  0  0  0  0  0  0  0
   -4.8731   -1.3835   -0.4459 C   0  0  0  0  0  0  0  0  0  0  0  0
   -5.7979   -1.9336   -1.2734 O   0  0  0  0  0  0  0  0  0  0  0  0
   -6.4139   -1.3088   -2.2366 C   0  0  0  0  0  0  0  0  0  0  0  0
   -4.3907   -2.2415    0.5794 C   0  0  0  0  0  0  0  0  0  0  0  0
   -4.8891   -3.4907    0.5853 O   0  0  0  0  0  0  0  0  0  0  0  0
   -4.4967   -4.3847    1.6039 C   0  0  0  0  0  0  0  0  0  0  0  0
   -3.4625   -1.7281    1.4753 C   0  0  0  0  0  0  0  0  0  0  0  0
   -3.0185   -0.4161    1.3712 C   0  0  0  0  0  0  0  0  0  0  0  0
   -2.5010    2.1300   -1.2081 C   0  0  0  0  0  0  0  0  0  0  0  0
   -1.5424    1.0538   -1.7464 C   0  0  0  0  0  0  0  0  0  0  0  0
   -0.2042    1.0776   -1.1176 C   0  0  0  0  0  0  0  0  0  0  0  0
    0.4823    0.0125   -0.7274 N   0  0  0  0  0  0  0  0  0  0  0  0
    1.8585    0.1348   -0.3049 C   0  0  0  0  0  0  0  0  0  0  0  0
    2.8374   -0.3167   -1.4055 C   0  0  0  0  0  0  0  0  0  0  0  0
    4.2547   -0.1206   -0.9436 C   0  0  0  0  0  0  0  0  0  0  0  0
    4.9025    1.0871   -1.1480 C   0  0  0  0  0  0  0  0  0  0  0  0
    6.2016    1.2804   -0.7049 C   0  0  0  0  0  0  0  0  0  0  0  0
    6.8798    0.2675   -0.0415 C   0  0  0  0  0  0  0  0  0  0  0  0
    8.1382    0.3405    0.4272 O   0  0  0  0  0  0  0  0  0  0  0  0
    8.8772    1.5254    0.2372 C   0  0  0  0  0  0  0  0  0  0  0  0
    6.2212   -0.9747    0.1778 C   0  0  0  0  0  0  0  0  0  0  0  0
    6.9522   -1.9026    0.8256 O   0  0  0  0  0  0  0  0  0  0  0  0
    6.4024   -3.1773    1.0581 C   0  0  0  0  0  0  0  0  0  0  0  0
    4.9212   -1.1434   -0.2729 C   0  0  0  0  0  0  0  0  0  0  0  0
   -0.0855   -1.3147   -0.7559 C   0  0  0  0  0  0  0  0  0  0  0  0
   -4.2503    2.7863    0.5116 C   0  0  0  0  0  0  0  0  0  0  0  0
   -4.8651    2.4938    1.8776 C   0  0  0  0  0  0  0  0  0  0  0  0
   -3.9253    4.2725    0.3978 C   0  0  0  0  0  0  0  0  0  0  0  0
   -4.7599    0.5592   -1.3435 H   0  0  0  0  0  0  0  0  0  0  0  0
   -6.2428   -0.2729   -2.4937 H   0  0  0  0  0  0  0  0  0  0  0  0
   -7.1243   -1.9116   -2.7739 H   0  0  0  0  0  0  0  0  0  0  0  0
   -5.0992    1.6027   -2.7622 H   0  0  0  0  0  0  0  0  0  0  0  0
   -4.7442   -3.9955    2.5950 H   0  0  0  0  0  0  0  0  0  0  0  0
   -5.0614   -5.2969    1.4226 H   0  0  0  0  0  0  0  0  0  0  0  0
   -3.4261   -4.6041    1.5507 H   0  0  0  0  0  0  0  0  0  0  0  0
   -3.0866   -2.3435    2.2765 H   0  0  0  0  0  0  0  0  0  0  0  0
   -2.3242   -0.0471    2.1104 H   0  0  0  0  0  0  0  0  0  0  0  0
   -3.3606    2.1773   -1.8839 H   0  0  0  0  0  0  0  0  0  0  0  0
   -2.0039    3.0996   -1.2340 H   0  0  0  0  0  0  0  0  0  0  0  0
   -2.0103    0.0741   -1.6694 H   0  0  0  0  0  0  0  0  0  0  0  0
   -1.4039    1.2707   -2.8136 H   0  0  0  0  0  0  0  0  0  0  0  0
   -0.9438    1.6167    0.7890 H   0  0  0  0  0  0  0  0  0  0  0  0
    0.3230    2.0210   -1.1076 H   0  0  0  0  0  0  0  0  0  0  0  0
    2.0138   -0.4726    0.5912 H   0  0  0  0  0  0  0  0  0  0  0  0
    2.0681    1.1759   -0.0517 H   0  0  0  0  0  0  0  0  0  0  0  0
    2.6536    0.2763   -2.3029 H   0  0  0  0  0  0  0  0  0  0  0  0
    2.6625   -1.3666   -1.6434 H   0  0  0  0  0  0  0  0  0  0  0  0
    4.4011    1.8878   -1.6701 H   0  0  0  0  0  0  0  0  0  0  0  0
    6.6822    2.2275   -0.8872 H   0  0  0  0  0  0  0  0  0  0  0  0
    8.4025    2.3776    0.7328 H   0  0  0  0  0  0  0  0  0  0  0  0
    9.0105    1.7477   -0.8258 H   0  0  0  0  0  0  0  0  0  0  0  0
    9.8485    1.3393    0.6914 H   0  0  0  0  0  0  0  0  0  0  0  0
    7.1824   -3.7441    1.5627 H   0  0  0  0  0  0  0  0  0  0  0  0
    5.5207   -3.1223    1.7048 H   0  0  0  0  0  0  0  0  0  0  0  0
    6.1399   -3.6784    0.1212 H   0  0  0  0  0  0  0  0  0  0  0  0
    4.4168   -2.0845   -0.1185 H   0  0  0  0  0  0  0  0  0  0  0  0
   -0.2568   -1.6480   -1.7816 H   0  0  0  0  0  0  0  0  0  0  0  0
   -1.0358   -1.3346   -0.2169 H   0  0  0  0  0  0  0  0  0  0  0  0
    0.5998   -2.0084   -0.2756 H   0  0  0  0  0  0  0  0  0  0  0  0
   -4.9945    2.5475   -0.2558 H   0  0  0  0  0  0  0  0  0  0  0  0
   -4.1557    2.7314    2.6644 H   0  0  0  0  0  0  0  0  0  0  0  0
   -5.1552    1.4494    1.9662 H   0  0  0  0  0  0  0  0  0  0  0  0
   -5.7520    3.1065    2.0153 H   0  0  0  0  0  0  0  0  0  0  0  0
   -3.1499    4.5490    1.1064 H   0  0  0  0  0  0  0  0  0  0  0  0
   -3.6104    4.5405   -0.6066 H   0  0  0  0  0  0  0  0  0  0  0  0
   -4.8170    4.8493    0.6290 H   0  0  0  0  0  0  0  0  0  0  0  0
   -1.0505    2.9675    2.7027 H   0  0  0  0  0  0  0  0  0  0  0  0
  1  2  2  0  0  0  0
  2  3  1  0  0  0  0
  3  4  1  0  0  0  0
  4  5  4  0  0  0  0
  5  6  4  0  0  0  0
  6  7  1  0  0  0  0
  7  8  4  0  0  0  0
  6  9  4  0  0  0  0
  9 10  1  0  0  0  0
 10 11  1  0  0  0  0
  9 12  4  0  0  0  0
  4 13  4  0  0  0  0
 12 13  4  0  0  0  0
  3 14  1  0  0  0  0
 14 15  1  0  0  0  0
 15 16  1  0  0  0  0
 16 17  4  0  0  0  0
 17 18  1  0  0  0  0
 18 19  1  0  0  0  0
 19 20  1  0  0  0  0
 20 21  4  0  0  0  0
 21 22  4  0  0  0  0
 22 23  4  0  0  0  0
 23 24  1  0  0  0  0
 24 25  1  0  0  0  0
 23 26  4  0  0  0  0
 26 27  1  0  0  0  0
 27 28  1  0  0  0  0
 20 29  4  0  0  0  0
 26 29  4  0  0  0  0
 17 30  1  0  0  0  0
  3 31  1  0  0  0  0
 31 32  1  0  0  0  0
 31 33  1  0  0  0  0
  5 34  1  0  0  0  0
  8 35  1  0  0  0  0
  8 36  1  0  0  0  0
 11 38  1  0  0  0  0
 11 39  1  0  0  0  0
 11 40  1  0  0  0  0
 12 41  1  0  0  0  0
 13 42  1  0  0  0  0
 14 43  1  0  0  0  0
 14 44  1  0  0  0  0
 15 45  1  0  0  0  0
 15 46  1  0  0  0  0
  2 47  1  0  0  0  0
 16 48  1  0  0  0  0
 18 49  1  0  0  0  0
 18 50  1  0  0  0  0
 19 51  1  0  0  0  0
 19 52  1  0  0  0  0
 21 53  1  0  0  0  0
 22 54  1  0  0  0  0
 25 55  1  0  0  0  0
 25 56  1  0  0  0  0
 25 57  1  0  0  0  0
 28 58  1  0  0  0  0
 28 59  1  0  0  0  0
 28 60  1  0  0  0  0
 29 61  1  0  0  0  0
 30 62  1  0  0  0  0
 30 63  1  0  0  0  0
 30 64  1  0  0  0  0
 31 65  1  0  0  0  0
 32 66  1  0  0  0  0
 32 67  1  0  0  0  0
 32 68  1  0  0  0  0
 33 69  1  0  0  0  0
 33 70  1  0  0  0  0
 33 71  1  0  0  0  0
  1 72  1  0  0  0  0
M  CHG  1   1   1
M  END
