 xtb: 6.6.1 (8d0f1dd)
          04062411173D

 72 72  0     0  0            999 V2000
   -1.7809    2.8565    2.2565 N   0  0  0  0  0  0  0  0  0  0  0  0
   -1.7511    2.1427    1.2329 C   0  0  0  0  0  0  0  0  0  0  0  0
   -2.9099    1.9425    0.2950 C   0  0  0  0  0  0  0  0  0  0  0  0
   -3.3902    0.5022    0.3777 C   0  0  0  0  0  0  0  0  0  0  0  0
   -4.2810    0.0114   -0.5790 C   0  0  0  0  0  0  0  0  0  0  0  0
   -4.7683   -1.2836   -0.5175 C   0  0  0  0  0  0  0  0  0  0  0  0
   -5.6270   -1.8357   -1.3988 O   0  0  0  0  0  0  0  0  0  0  0  0
   -6.1512   -1.0460   -2.4402 C   0  0  0  0  0  0  0  0  0  0  0  0
   -4.3574   -2.1365    0.5431 C   0  0  0  0  0  0  0  0  0  0  0  0
   -4.8856   -3.3759    0.5276 O   0  0  0  0  0  0  0  0  0  0  0  0
   -4.6092   -4.2530    1.5948 C   0  0  0  0  0  0  0  0  0  0  0  0
   -3.4735   -1.6425    1.4895 C   0  0  0  0  0  0  0  0  0  0  0  0
   -2.9963   -0.3404    1.4060 C   0  0  0  0  0  0  0  0  0  0  0  0
   -2.3611    2.2495   -1.1227 C   0  0  0  0  0  0  0  0  0  0  0  0
   -1.4569    1.1509   -1.7109 C   0  0  0  0  0  0  0  0  0  0  0  0
   -0.1138    1.0822   -1.0937 C   0  0  0  0  0  0  0  0  0  0  0  0
    0.5019   -0.0267   -0.7110 N   0  0  0  0  0  0  0  0  0  0  0  0
    1.9096   -0.0137   -0.3862 C   0  0  0  0  0  0  0  0  0  0  0  0
    2.7533   -0.6142   -1.5265 C   0  0  0  0  0  0  0  0  0  0  0  0
    4.2181   -0.4430   -1.2261 C   0  0  0  0  0  0  0  0  0  0  0  0
    4.8803    0.7090   -1.6277 C   0  0  0  0  0  0  0  0  0  0  0  0
    6.2262    0.8744   -1.3360 C   0  0  0  0  0  0  0  0  0  0  0  0
    6.9126   -0.0980   -0.6428 C   0  0  0  0  0  0  0  0  0  0  0  0
    7.3171    2.5602    1.2141 O   0  0  0  0  0  0  0  0  0  0  0  0
    8.4700    2.8546    1.3347 C   0  0  0  0  0  0  0  0  0  0  0  0
    6.2556   -1.2612   -0.2229 C   0  0  0  0  0  0  0  0  0  0  0  0
    7.0125   -2.1525    0.4501 O   0  0  0  0  0  0  0  0  0  0  0  0
    6.4368   -3.3584    0.8947 C   0  0  0  0  0  0  0  0  0  0  0  0
    4.9029   -1.4230   -0.5188 C   0  0  0  0  0  0  0  0  0  0  0  0
   -0.1649   -1.3069   -0.6904 C   0  0  0  0  0  0  0  0  0  0  0  0
   -4.1231    2.8706    0.6043 C   0  0  0  0  0  0  0  0  0  0  0  0
   -4.7450    2.5475    1.9607 C   0  0  0  0  0  0  0  0  0  0  0  0
   -3.7751    4.3549    0.5379 C   0  0  0  0  0  0  0  0  0  0  0  0
   -4.6104    0.6582   -1.3751 H   0  0  0  0  0  0  0  0  0  0  0  0
   -6.6986   -0.1817   -2.0523 H   0  0  0  0  0  0  0  0  0  0  0  0
   -6.8389   -1.6943   -2.9796 H   0  0  0  0  0  0  0  0  0  0  0  0
   -5.3655   -0.7069   -3.1233 H   0  0  0  0  0  0  0  0  0  0  0  0
   -4.9282   -3.8312    2.5524 H   0  0  0  0  0  0  0  0  0  0  0  0
   -5.1832   -5.1540    1.3881 H   0  0  0  0  0  0  0  0  0  0  0  0
   -3.5450   -4.5050    1.6425 H   0  0  0  0  0  0  0  0  0  0  0  0
   -3.1556   -2.2617    2.3124 H   0  0  0  0  0  0  0  0  0  0  0  0
   -2.3323    0.0179    2.1773 H   0  0  0  0  0  0  0  0  0  0  0  0
   -3.2017    2.3933   -1.8006 H   0  0  0  0  0  0  0  0  0  0  0  0
   -1.8046    3.1868   -1.0872 H   0  0  0  0  0  0  0  0  0  0  0  0
   -1.9693    0.1916   -1.6684 H   0  0  0  0  0  0  0  0  0  0  0  0
   -1.3076    1.4046   -2.7686 H   0  0  0  0  0  0  0  0  0  0  0  0
   -0.8457    1.6126    0.8783 H   0  0  0  0  0  0  0  0  0  0  0  0
    0.4750    1.9881   -1.0851 H   0  0  0  0  0  0  0  0  0  0  0  0
    2.0746   -0.5845    0.5317 H   0  0  0  0  0  0  0  0  0  0  0  0
    2.2325    1.0146   -0.2120 H   0  0  0  0  0  0  0  0  0  0  0  0
    2.5047   -0.0965   -2.4549 H   0  0  0  0  0  0  0  0  0  0  0  0
    2.5135   -1.6715   -1.6459 H   0  0  0  0  0  0  0  0  0  0  0  0
    4.3490    1.4708   -2.1782 H   0  0  0  0  0  0  0  0  0  0  0  0
    6.7373    1.7696   -1.6515 H   0  0  0  0  0  0  0  0  0  0  0  0
    8.8270    3.5790    2.0832 H   0  0  0  0  0  0  0  0  0  0  0  0
    9.2649    2.4170    0.7090 H   0  0  0  0  0  0  0  0  0  0  0  0
    7.9577    0.0136   -0.4096 H   0  0  0  0  0  0  0  0  0  0  0  0
    7.2410   -3.9061    1.3824 H   0  0  0  0  0  0  0  0  0  0  0  0
    5.6348   -3.1769    1.6172 H   0  0  0  0  0  0  0  0  0  0  0  0
    6.0519   -3.9510    0.0590 H   0  0  0  0  0  0  0  0  0  0  0  0
    4.3758   -2.3142   -0.2133 H   0  0  0  0  0  0  0  0  0  0  0  0
   -0.3573   -1.6711   -1.7019 H   0  0  0  0  0  0  0  0  0  0  0  0
   -1.1151   -1.2330   -0.1562 H   0  0  0  0  0  0  0  0  0  0  0  0
    0.4648   -2.0290   -0.1768 H   0  0  0  0  0  0  0  0  0  0  0  0
   -4.8736    2.6623   -0.1672 H   0  0  0  0  0  0  0  0  0  0  0  0
   -4.0337    2.7517    2.7545 H   0  0  0  0  0  0  0  0  0  0  0  0
   -5.0490    1.5051    2.0169 H   0  0  0  0  0  0  0  0  0  0  0  0
   -5.6236    3.1683    2.1148 H   0  0  0  0  0  0  0  0  0  0  0  0
   -3.0074    4.5951    1.2669 H   0  0  0  0  0  0  0  0  0  0  0  0
   -3.4362    4.6499   -0.4516 H   0  0  0  0  0  0  0  0  0  0  0  0
   -4.6609    4.9389    0.7736 H   0  0  0  0  0  0  0  0  0  0  0  0
   -0.9295    2.9456    2.8020 H   0  0  0  0  0  0  0  0  0  0  0  0
  1  2  2  0  0  0  0
  2  3  1  0  0  0  0
  3  4  1  0  0  0  0
  4  5  4  0  0  0  0
  5  6  4  0  0  0  0
  6  7  1  0  0  0  0
  7  8  1  0  0  0  0
  6  9  4  0  0  0  0
  9 10  1  0  0  0  0
 10 11  1  0  0  0  0
  9 12  4  0  0  0  0
  4 13  4  0  0  0  0
 12 13  4  0  0  0  0
  3 14  1  0  0  0  0
 14 15  1  0  0  0  0
 15 16  1  0  0  0  0
 16 17  4  0  0  0  0
 17 18  1  0  0  0  0
 18 19  1  0  0  0  0
 19 20  1  0  0  0  0
 20 21  4  0  0  0  0
 21 22  4  0  0  0  0
 22 23  4  0  0  0  0
 24 25  2  0  0  0  0
 23 26  4  0  0  0  0
 26 27  1  0  0  0  0
 27 28  1  0  0  0  0
 20 29  4  0  0  0  0
 26 29  4  0  0  0  0
 17 30  1  0  0  0  0
  3 31  1  0  0  0  0
 31 32  1  0  0  0  0
 31 33  1  0  0  0  0
  5 34  1  0  0  0  0
  8 35  1  0  0  0  0
  8 36  1  0  0  0  0
  8 37  1  0  0  0  0
 11 38  1  0  0  0  0
 11 39  1  0  0  0  0
 11 40  1  0  0  0  0
 12 41  1  0  0  0  0
 13 42  1  0  0  0  0
 14 43  1  0  0  0  0
 14 44  1  0  0  0  0
 15 45  1  0  0  0  0
 15 46  1  0  0  0  0
  2 47  1  0  0  0  0
 16 48  1  0  0  0  0
 18 49  1  0  0  0  0
 18 50  1  0  0  0  0
 19 51  1  0  0  0  0
 19 52  1  0  0  0  0
 21 53  1  0  0  0  0
 22 54  1  0  0  0  0
 25 55  1  0  0  0  0
 25 56  1  0  0  0  0
 23 57  1  0  0  0  0
 28 58  1  0  0  0  0
 28 59  1  0  0  0  0
 28 60  1  0  0  0  0
 29 61  1  0  0  0  0
 30 62  1  0  0  0  0
 30 63  1  0  0  0  0
 30 64  1  0  0  0  0
 31 65  1  0  0  0  0
 32 66  1  0  0  0  0
 32 67  1  0  0  0  0
 32 68  1  0  0  0  0
 33 69  1  0  0  0  0
 33 70  1  0  0  0  0
 33 71  1  0  0  0  0
  1 72  1  0  0  0  0
M  CHG  1   1   1
M  END
