 xtb: 6.6.1 (8d0f1dd)
          04062411153D

 72 75  0     0  0            999 V2000
   -1.6065    2.5560    1.4982 N   0  0  0  0  0  0  0  0  0  0  0  0
   -1.5623    1.1958    0.8786 C   0  0  0  0  0  0  0  0  0  0  0  0
   -2.7676    1.1167   -0.0910 C   0  0  0  0  0  0  0  0  0  0  0  0
   -3.7013   -0.0627    0.1177 C   0  0  0  0  0  0  0  0  0  0  0  0
   -4.7774   -0.1850   -0.7728 C   0  0  0  0  0  0  0  0  0  0  0  0
   -5.6793   -1.2285   -0.6840 C   0  0  0  0  0  0  0  0  0  0  0  0
   -6.7414   -1.4166   -1.5008 O   0  0  0  0  0  0  0  0  0  0  0  0
   -6.9592   -0.5174   -2.5596 C   0  0  0  0  0  0  0  0  0  0  0  0
   -5.5177   -2.2058    0.3318 C   0  0  0  0  0  0  0  0  0  0  0  0
   -6.4342   -3.1969    0.3407 O   0  0  0  0  0  0  0  0  0  0  0  0
   -6.3218   -4.2131    1.3089 C   0  0  0  0  0  0  0  0  0  0  0  0
   -4.4618   -2.0734    1.2150 C   0  0  0  0  0  0  0  0  0  0  0  0
   -3.5667   -1.0133    1.1112 C   0  0  0  0  0  0  0  0  0  0  0  0
   -2.1017    1.0184   -1.4865 C   0  0  0  0  0  0  0  0  0  0  0  0
   -0.7774    0.3124   -1.2288 C   0  0  0  0  0  0  0  0  0  0  0  0
   -0.2660    0.9896    0.0552 C   0  0  0  0  0  0  0  0  0  0  0  0
    0.7353    0.3354    0.8661 N   0  0  0  0  0  0  0  0  0  0  0  0
    2.1081    0.7552    0.6374 C   0  0  0  0  0  0  0  0  0  0  0  0
    2.6973    0.4738   -0.7596 C   0  0  0  0  0  0  0  0  0  0  0  0
    4.1956    0.5753   -0.7019 C   0  0  0  0  0  0  0  0  0  0  0  0
    4.8461    1.7744   -0.9219 C   0  0  0  0  0  0  0  0  0  0  0  0
    6.2275    1.8633   -0.8094 C   0  0  0  0  0  0  0  0  0  0  0  0
    6.9814    0.7525   -0.4703 C   0  0  0  0  0  0  0  0  0  0  0  0
    8.3282    0.7263   -0.3269 O   0  0  0  0  0  0  0  0  0  0  0  0
    9.0538    1.9151   -0.5249 C   0  0  0  0  0  0  0  0  0  0  0  0
    6.3240   -0.4833   -0.2474 C   0  0  0  0  0  0  0  0  0  0  0  0
    7.1345   -1.5220    0.0725 O   0  0  0  0  0  0  0  0  0  0  0  0
    6.5641   -2.7924    0.2641 C   0  0  0  0  0  0  0  0  0  0  0  0
    4.9471   -0.5493   -0.3625 C   0  0  0  0  0  0  0  0  0  0  0  0
    0.5989   -1.1034    1.0044 C   0  0  0  0  0  0  0  0  0  0  0  0
   -3.4973    2.4772    0.1058 C   0  0  0  0  0  0  0  0  0  0  0  0
   -4.6012    2.4286    1.1603 C   0  0  0  0  0  0  0  0  0  0  0  0
   -2.3635    3.4038    0.5487 C   0  0  0  0  0  0  0  0  0  0  0  0
   -4.9039    0.5594   -1.5423 H   0  0  0  0  0  0  0  0  0  0  0  0
   -7.1432    0.4992   -2.1962 H   0  0  0  0  0  0  0  0  0  0  0  0
   -7.8483   -0.8803   -3.0713 H   0  0  0  0  0  0  0  0  0  0  0  0
   -6.1181   -0.5090   -3.2607 H   0  0  0  0  0  0  0  0  0  0  0  0
   -6.4113   -3.8132    2.3238 H   0  0  0  0  0  0  0  0  0  0  0  0
   -7.1491   -4.8931    1.1161 H   0  0  0  0  0  0  0  0  0  0  0  0
   -5.3766   -4.7565    1.2123 H   0  0  0  0  0  0  0  0  0  0  0  0
   -4.3130   -2.7954    2.0006 H   0  0  0  0  0  0  0  0  0  0  0  0
   -2.7727   -0.9839    1.8406 H   0  0  0  0  0  0  0  0  0  0  0  0
   -2.7183    0.4644   -2.1886 H   0  0  0  0  0  0  0  0  0  0  0  0
   -1.9227    2.0116   -1.9021 H   0  0  0  0  0  0  0  0  0  0  0  0
   -0.9590   -0.7454   -1.0491 H   0  0  0  0  0  0  0  0  0  0  0  0
   -0.0788    0.4142   -2.0555 H   0  0  0  0  0  0  0  0  0  0  0  0
   -1.5879    0.4561    1.6748 H   0  0  0  0  0  0  0  0  0  0  0  0
    0.1367    1.9726   -0.2173 H   0  0  0  0  0  0  0  0  0  0  0  0
    2.7194    0.2416    1.3822 H   0  0  0  0  0  0  0  0  0  0  0  0
    2.1776    1.8284    0.8431 H   0  0  0  0  0  0  0  0  0  0  0  0
    2.2989    1.1874   -1.4832 H   0  0  0  0  0  0  0  0  0  0  0  0
    2.4126   -0.5308   -1.0749 H   0  0  0  0  0  0  0  0  0  0  0  0
    4.2833    2.6557   -1.1921 H   0  0  0  0  0  0  0  0  0  0  0  0
    6.7067    2.8113   -0.9926 H   0  0  0  0  0  0  0  0  0  0  0  0
    8.7462    2.6962    0.1779 H   0  0  0  0  0  0  0  0  0  0  0  0
    8.9490    2.2850   -1.5498 H   0  0  0  0  0  0  0  0  0  0  0  0
   10.0948    1.6559   -0.3410 H   0  0  0  0  0  0  0  0  0  0  0  0
    7.3971   -3.4577    0.4833 H   0  0  0  0  0  0  0  0  0  0  0  0
    5.8663   -2.7990    1.1085 H   0  0  0  0  0  0  0  0  0  0  0  0
    6.0495   -3.1427   -0.6368 H   0  0  0  0  0  0  0  0  0  0  0  0
    4.4348   -1.4842   -0.1958 H   0  0  0  0  0  0  0  0  0  0  0  0
    0.9396   -1.6624    0.1263 H   0  0  0  0  0  0  0  0  0  0  0  0
   -0.4400   -1.3663    1.1898 H   0  0  0  0  0  0  0  0  0  0  0  0
    1.1920   -1.4183    1.8618 H   0  0  0  0  0  0  0  0  0  0  0  0
   -3.9294    2.8171   -0.8353 H   0  0  0  0  0  0  0  0  0  0  0  0
   -4.2555    1.9905    2.0943 H   0  0  0  0  0  0  0  0  0  0  0  0
   -5.4306    1.8219    0.8113 H   0  0  0  0  0  0  0  0  0  0  0  0
   -4.9766    3.4304    1.3561 H   0  0  0  0  0  0  0  0  0  0  0  0
   -2.7138    4.3205    1.0225 H   0  0  0  0  0  0  0  0  0  0  0  0
   -0.6572    2.8980    1.6641 H   0  0  0  0  0  0  0  0  0  0  0  0
   -1.7127    3.6594   -0.2878 H   0  0  0  0  0  0  0  0  0  0  0  0
   -2.1170    2.5189    2.3859 H   0  0  0  0  0  0  0  0  0  0  0  0
  1  2  1  0  0  0  0
  2  3  1  0  0  0  0
  3  4  1  0  0  0  0
  4  5  4  0  0  0  0
  5  6  4  0  0  0  0
  6  7  1  0  0  0  0
  7  8  1  0  0  0  0
  6  9  4  0  0  0  0
  9 10  1  0  0  0  0
 10 11  1  0  0  0  0
  9 12  4  0  0  0  0
  4 13  4  0  0  0  0
 12 13  4  0  0  0  0
  3 14  1  0  0  0  0
 14 15  1  0  0  0  0
  2 16  1  0  0  0  0
 15 16  1  0  0  0  0
 16 17  1  0  0  0  0
 17 18  1  0  0  0  0
 18 19  1  0  0  0  0
 19 20  1  0  0  0  0
 20 21  4  0  0  0  0
 21 22  4  0  0  0  0
 22 23  4  0  0  0  0
 23 24  1  0  0  0  0
 24 25  1  0  0  0  0
 23 26  4  0  0  0  0
 26 27  1  0  0  0  0
 27 28  1  0  0  0  0
 20 29  4  0  0  0  0
 26 29  4  0  0  0  0
 17 30  1  0  0  0  0
  3 31  1  0  0  0  0
 31 32  1  0  0  0  0
  1 33  1  0  0  0  0
 31 33  1  0  0  0  0
  5 34  1  0  0  0  0
  8 35  1  0  0  0  0
  8 36  1  0  0  0  0
  8 37  1  0  0  0  0
 11 38  1  0  0  0  0
 11 39  1  0  0  0  0
 11 40  1  0  0  0  0
 12 41  1  0  0  0  0
 13 42  1  0  0  0  0
 14 43  1  0  0  0  0
 14 44  1  0  0  0  0
 15 45  1  0  0  0  0
 15 46  1  0  0  0  0
  2 47  1  0  0  0  0
 16 48  1  0  0  0  0
 18 49  1  0  0  0  0
 18 50  1  0  0  0  0
 19 51  1  0  0  0  0
 19 52  1  0  0  0  0
 21 53  1  0  0  0  0
 22 54  1  0  0  0  0
 25 55  1  0  0  0  0
 25 56  1  0  0  0  0
 25 57  1  0  0  0  0
 28 58  1  0  0  0  0
 28 59  1  0  0  0  0
 28 60  1  0  0  0  0
 29 61  1  0  0  0  0
 30 62  1  0  0  0  0
 30 63  1  0  0  0  0
 30 64  1  0  0  0  0
 31 65  1  0  0  0  0
 32 66  1  0  0  0  0
 32 67  1  0  0  0  0
 32 68  1  0  0  0  0
 33 69  1  0  0  0  0
  1 70  1  0  0  0  0
 33 71  1  0  0  0  0
  1 72  1  0  0  0  0
M  CHG  1   1   1
M  END
