 xtb: 6.6.1 (8d0f1dd)
          06052419583D

 25 25  0     0  0            999 V2000
    3.2317    1.0811   -0.0399 C   0  0  0  0  0  0  0  0  0  0  0  0
    2.2981   -0.0111   -0.0244 N   0  0  0  0  0  0  0  0  0  0  0  0
    2.5947   -1.3156    0.0027 C   0  0  0  0  0  0  0  0  0  0  0  0
    1.4495   -2.0459    0.0197 N   0  0  0  0  0  0  0  0  0  0  0  0
    0.3970   -1.1786    0.0066 C   0  0  0  0  0  0  0  0  0  0  0  0
    0.9242    0.1098   -0.0212 C   0  0  0  0  0  0  0  0  0  0  0  0
    0.0988    1.2749   -0.0441 C   0  0  0  0  0  0  0  0  0  0  0  0
    0.4539    2.4359   -0.0931 O   0  0  0  0  0  0  0  0  0  0  0  0
   -1.2979    0.9329   -0.0017 N   0  0  0  0  0  0  0  0  0  0  0  0
   -2.1756    1.9482    0.0164 C   0  0  0  0  0  0  0  0  0  0  0  0
   -1.8357   -0.3819    0.0242 C   0  0  0  0  0  0  0  0  0  0  0  0
   -3.0243   -0.5687    0.0563 O   0  0  0  0  0  0  0  0  0  0  0  0
   -0.9285   -1.4396    0.0061 N   0  0  0  0  0  0  0  0  0  0  0  0
   -1.4355   -2.7981    0.0235 C   0  0  0  0  0  0  0  0  0  0  0  0
    3.7244    1.1755    0.9297 H   0  0  0  0  0  0  0  0  0  0  0  0
    3.9909    0.9184   -0.8044 H   0  0  0  0  0  0  0  0  0  0  0  0
    2.6897    2.0029   -0.2486 H   0  0  0  0  0  0  0  0  0  0  0  0
    3.5836   -1.7257    0.0106 H   0  0  0  0  0  0  0  0  0  0  0  0
   -3.2381    5.1832    0.0462 H   0  0  0  0  0  0  0  0  0  0  0  0
   -1.7848    2.9506   -0.0047 H   0  0  0  0  0  0  0  0  0  0  0  0
   -3.2264    1.7247    0.0442 H   0  0  0  0  0  0  0  0  0  0  0  0
   -1.1267   -3.3095    0.9360 H   0  0  0  0  0  0  0  0  0  0  0  0
   -1.0828   -3.3445   -0.8516 H   0  0  0  0  0  0  0  0  0  0  0  0
   -2.5231   -2.7471   -0.0028 H   0  0  0  0  0  0  0  0  0  0  0  0
    1.4035   -3.0536    0.0453 H   0  0  0  0  0  0  0  0  0  0  0  0
  1  2  1  0  0  0  0
  2  3  4  0  0  0  0
  3  4  4  0  0  0  0
  4  5  1  0  0  0  0
  2  6  1  0  0  0  0
  5  6  4  0  0  0  0
  6  7  1  0  0  0  0
  7  8  2  0  0  0  0
  7  9  1  0  0  0  0
  9 10  4  0  0  0  0
  9 11  1  0  0  0  0
 11 12  2  0  0  0  0
  5 13  1  0  0  0  0
 11 13  1  0  0  0  0
 13 14  1  0  0  0  0
  1 15  1  0  0  0  0
  1 16  1  0  0  0  0
  1 17  1  0  0  0  0
  3 18  1  0  0  0  0
 10 20  1  0  0  0  0
 10 21  1  0  0  0  0
 14 22  1  0  0  0  0
 14 23  1  0  0  0  0
 14 24  1  0  0  0  0
  4 25  1  0  0  0  0
M  CHG  1   1   1
M  END
