 xtb: 6.6.1 (8d0f1dd)
          06052419593D

 25 26  0     0  0            999 V2000
    3.3058    1.6083    0.0604 C   0  0  0  0  0  0  0  0  0  0  0  0
    2.5644    0.3743    0.0989 N   0  0  0  0  0  0  0  0  0  0  0  0
    3.0546   -0.8548    0.1950 C   0  0  0  0  0  0  0  0  0  0  0  0
    2.0533   -1.7558    0.1951 N   0  0  0  0  0  0  0  0  0  0  0  0
    0.8746   -1.0781    0.0955 C   0  0  0  0  0  0  0  0  0  0  0  0
    1.1977    0.2741    0.0356 C   0  0  0  0  0  0  0  0  0  0  0  0
    0.1647    1.2766   -0.0676 C   0  0  0  0  0  0  0  0  0  0  0  0
    0.3156    2.4727   -0.1293 O   0  0  0  0  0  0  0  0  0  0  0  0
   -1.1086    0.6732   -0.0886 N   0  0  0  0  0  0  0  0  0  0  0  0
   -2.2628    1.5501   -0.1842 C   0  0  0  0  0  0  0  0  0  0  0  0
   -1.3138   -0.6739   -0.0315 C   0  0  0  0  0  0  0  0  0  0  0  0
   -2.5712   -1.0260   -0.0640 O   0  0  0  0  0  0  0  0  0  0  0  0
   -0.3619   -1.5754    0.0572 N   0  0  0  0  0  0  0  0  0  0  0  0
   -2.8886   -2.4160   -0.0470 C   0  0  0  0  0  0  0  0  0  0  0  0
    3.9041    1.7213    0.9646 H   0  0  0  0  0  0  0  0  0  0  0  0
    3.9695    1.6256   -0.8044 H   0  0  0  0  0  0  0  0  0  0  0  0
    2.5985    2.4344   -0.0114 H   0  0  0  0  0  0  0  0  0  0  0  0
    4.0966   -1.1004    0.2637 H   0  0  0  0  0  0  0  0  0  0  0  0
   -1.8960    2.5735   -0.2386 H   0  0  0  0  0  0  0  0  0  0  0  0
   -2.8399    1.3123   -1.0765 H   0  0  0  0  0  0  0  0  0  0  0  0
   -2.8984    1.4282    0.6917 H   0  0  0  0  0  0  0  0  0  0  0  0
   -2.2797   -2.9455    0.6868 H   0  0  0  0  0  0  0  0  0  0  0  0
   -2.7222   -2.8483   -1.0365 H   0  0  0  0  0  0  0  0  0  0  0  0
   -3.9443   -2.4725    0.2083 H   0  0  0  0  0  0  0  0  0  0  0  0
    2.1485   -2.7597    0.2582 H   0  0  0  0  0  0  0  0  0  0  0  0
  1  2  1  0  0  0  0
  2  3  4  0  0  0  0
  3  4  4  0  0  0  0
  4  5  1  0  0  0  0
  2  6  1  0  0  0  0
  5  6  4  0  0  0  0
  6  7  1  0  0  0  0
  7  8  2  0  0  0  0
  7  9  1  0  0  0  0
  9 10  1  0  0  0  0
  9 11  4  0  0  0  0
 11 12  4  0  0  0  0
  5 13  4  0  0  0  0
 11 13  4  0  0  0  0
 12 14  1  0  0  0  0
  1 15  1  0  0  0  0
  1 16  1  0  0  0  0
  1 17  1  0  0  0  0
  3 18  1  0  0  0  0
 10 19  1  0  0  0  0
 10 20  1  0  0  0  0
 10 21  1  0  0  0  0
 14 22  1  0  0  0  0
 14 23  1  0  0  0  0
 14 24  1  0  0  0  0
  4 25  1  0  0  0  0
M  CHG  1   1   1
M  END
