 xtb: 6.6.1 (8d0f1dd)
          04062411153D

 72 74  0     0  0            999 V2000
   -1.6706    3.1083    2.0115 N   0  0  0  0  0  0  0  0  0  0  0  0
   -1.8095    2.0953    1.2927 C   0  0  0  0  0  0  0  0  0  0  0  0
   -3.0231    1.8323    0.4441 C   0  0  0  0  0  0  0  0  0  0  0  0
   -3.5289    0.4609    0.7738 C   0  0  0  0  0  0  0  0  0  0  0  0
   -4.8013   -0.2531    0.3210 C   0  0  0  0  0  0  0  0  0  0  0  0
   -4.9445   -1.2775   -0.8736 C   0  0  0  0  0  0  0  0  0  0  0  0
   -6.2335   -1.4684   -1.3424 O   0  0  0  0  0  0  0  0  0  0  0  0
   -6.6782   -0.4605   -2.2216 C   0  0  0  0  0  0  0  0  0  0  0  0
   -4.3880   -2.3185    0.0787 C   0  0  0  0  0  0  0  0  0  0  0  0
   -4.1330   -3.6004   -0.1310 O   0  0  0  0  0  0  0  0  0  0  0  0
   -3.4801   -4.2780    0.9279 C   0  0  0  0  0  0  0  0  0  0  0  0
   -4.2199   -1.4262    1.1097 C   0  0  0  0  0  0  0  0  0  0  0  0
   -3.1281   -0.5642    1.5682 C   0  0  0  0  0  0  0  0  0  0  0  0
   -2.5919    1.8619   -1.0468 C   0  0  0  0  0  0  0  0  0  0  0  0
   -1.6631    0.7124   -1.4639 C   0  0  0  0  0  0  0  0  0  0  0  0
   -0.2867    0.8504   -0.9403 C   0  0  0  0  0  0  0  0  0  0  0  0
    0.4882   -0.1630   -0.5688 N   0  0  0  0  0  0  0  0  0  0  0  0
    1.8718    0.0525   -0.2176 C   0  0  0  0  0  0  0  0  0  0  0  0
    2.8266   -0.3362   -1.3629 C   0  0  0  0  0  0  0  0  0  0  0  0
    4.2495   -0.1276   -0.9255 C   0  0  0  0  0  0  0  0  0  0  0  0
    4.8909    1.0798   -1.1464 C   0  0  0  0  0  0  0  0  0  0  0  0
    6.1908    1.2829   -0.7091 C   0  0  0  0  0  0  0  0  0  0  0  0
    6.8741    0.2815   -0.0343 C   0  0  0  0  0  0  0  0  0  0  0  0
    8.1314    0.3673    0.4366 O   0  0  0  0  0  0  0  0  0  0  0  0
    8.8618    1.5559    0.2371 C   0  0  0  0  0  0  0  0  0  0  0  0
    6.2230   -0.9619    0.1984 C   0  0  0  0  0  0  0  0  0  0  0  0
    6.9590   -1.8799    0.8559 O   0  0  0  0  0  0  0  0  0  0  0  0
    6.4105   -3.1509    1.1097 C   0  0  0  0  0  0  0  0  0  0  0  0
    4.9236   -1.1413   -0.2478 C   0  0  0  0  0  0  0  0  0  0  0  0
    0.0133   -1.5258   -0.5826 C   0  0  0  0  0  0  0  0  0  0  0  0
   -4.1897    2.8393    0.6653 C   0  0  0  0  0  0  0  0  0  0  0  0
   -4.6741    2.8122    2.1135 C   0  0  0  0  0  0  0  0  0  0  0  0
   -3.8389    4.2704    0.2691 C   0  0  0  0  0  0  0  0  0  0  0  0
   -4.2410   -1.0975   -1.7054 H   0  0  0  0  0  0  0  0  0  0  0  0
   -6.7073    0.5180   -1.7295 H   0  0  0  0  0  0  0  0  0  0  0  0
   -7.6833   -0.7435   -2.5235 H   0  0  0  0  0  0  0  0  0  0  0  0
   -6.0328   -0.3958   -3.1056 H   0  0  0  0  0  0  0  0  0  0  0  0
   -3.9152   -3.9929    1.8894 H   0  0  0  0  0  0  0  0  0  0  0  0
   -3.6204   -5.3421    0.7521 H   0  0  0  0  0  0  0  0  0  0  0  0
   -2.4117   -4.0425    0.9344 H   0  0  0  0  0  0  0  0  0  0  0  0
   -5.7381    0.1898    0.6116 H   0  0  0  0  0  0  0  0  0  0  0  0
   -2.3007   -0.7398    2.2313 H   0  0  0  0  0  0  0  0  0  0  0  0
   -3.4972    1.8052   -1.6527 H   0  0  0  0  0  0  0  0  0  0  0  0
   -2.1022    2.8130   -1.2542 H   0  0  0  0  0  0  0  0  0  0  0  0
   -2.1042   -0.2398   -1.1684 H   0  0  0  0  0  0  0  0  0  0  0  0
   -1.6105    0.7225   -2.5615 H   0  0  0  0  0  0  0  0  0  0  0  0
   -1.0503    1.3007    1.1964 H   0  0  0  0  0  0  0  0  0  0  0  0
    0.1627    1.8310   -0.9460 H   0  0  0  0  0  0  0  0  0  0  0  0
    2.1114   -0.5418    0.6687 H   0  0  0  0  0  0  0  0  0  0  0  0
    2.0222    1.1056    0.0269 H   0  0  0  0  0  0  0  0  0  0  0  0
    2.6059    0.2831   -2.2334 H   0  0  0  0  0  0  0  0  0  0  0  0
    2.6681   -1.3811   -1.6331 H   0  0  0  0  0  0  0  0  0  0  0  0
    4.3837    1.8727   -1.6746 H   0  0  0  0  0  0  0  0  0  0  0  0
    6.6666    2.2301   -0.9027 H   0  0  0  0  0  0  0  0  0  0  0  0
    8.3804    2.4086    0.7255 H   0  0  0  0  0  0  0  0  0  0  0  0
    8.9940    1.7704   -0.8275 H   0  0  0  0  0  0  0  0  0  0  0  0
    9.8340    1.3806    0.6936 H   0  0  0  0  0  0  0  0  0  0  0  0
    7.1900   -3.7077    1.6259 H   0  0  0  0  0  0  0  0  0  0  0  0
    5.5274   -3.0858    1.7536 H   0  0  0  0  0  0  0  0  0  0  0  0
    6.1506   -3.6689    0.1813 H   0  0  0  0  0  0  0  0  0  0  0  0
    4.4242   -2.0835   -0.0837 H   0  0  0  0  0  0  0  0  0  0  0  0
   -0.2262   -1.8514   -1.5971 H   0  0  0  0  0  0  0  0  0  0  0  0
   -0.8836   -1.6231    0.0341 H   0  0  0  0  0  0  0  0  0  0  0  0
    0.7826   -2.1793   -0.1795 H   0  0  0  0  0  0  0  0  0  0  0  0
   -5.0091    2.4974    0.0214 H   0  0  0  0  0  0  0  0  0  0  0  0
   -3.9056    3.2083    2.7700 H   0  0  0  0  0  0  0  0  0  0  0  0
   -4.9185    1.8019    2.4326 H   0  0  0  0  0  0  0  0  0  0  0  0
   -5.5639    3.4283    2.2133 H   0  0  0  0  0  0  0  0  0  0  0  0
   -2.9751    4.6124    0.8299 H   0  0  0  0  0  0  0  0  0  0  0  0
   -3.6400    4.3617   -0.7952 H   0  0  0  0  0  0  0  0  0  0  0  0
   -4.6788    4.9184    0.5055 H   0  0  0  0  0  0  0  0  0  0  0  0
   -0.8132    3.1909    2.5488 H   0  0  0  0  0  0  0  0  0  0  0  0
  1  2  2  0  0  0  0
  2  3  1  0  0  0  0
  3  4  1  0  0  0  0
  4  5  1  0  0  0  0
  5  6  1  0  0  0  0
  6  7  1  0  0  0  0
  7  8  1  0  0  0  0
  6  9  1  0  0  0  0
  9 10  1  0  0  0  0
 10 11  1  0  0  0  0
  5 12  1  0  0  0  0
  9 12  2  0  0  0  0
  4 13  2  0  0  0  0
 12 13  1  0  0  0  0
  3 14  1  0  0  0  0
 14 15  1  0  0  0  0
 15 16  1  0  0  0  0
 16 17  4  0  0  0  0
 17 18  1  0  0  0  0
 18 19  1  0  0  0  0
 19 20  1  0  0  0  0
 20 21  4  0  0  0  0
 21 22  4  0  0  0  0
 22 23  4  0  0  0  0
 23 24  1  0  0  0  0
 24 25  1  0  0  0  0
 23 26  4  0  0  0  0
 26 27  1  0  0  0  0
 27 28  1  0  0  0  0
 20 29  4  0  0  0  0
 26 29  4  0  0  0  0
 17 30  1  0  0  0  0
  3 31  1  0  0  0  0
 31 32  1  0  0  0  0
 31 33  1  0  0  0  0
  6 34  1  0  0  0  0
  8 35  1  0  0  0  0
  8 36  1  0  0  0  0
  8 37  1  0  0  0  0
 11 38  1  0  0  0  0
 11 39  1  0  0  0  0
 11 40  1  0  0  0  0
  5 41  1  0  0  0  0
 13 42  1  0  0  0  0
 14 43  1  0  0  0  0
 14 44  1  0  0  0  0
 15 45  1  0  0  0  0
 15 46  1  0  0  0  0
  2 47  1  0  0  0  0
 16 48  1  0  0  0  0
 18 49  1  0  0  0  0
 18 50  1  0  0  0  0
 19 51  1  0  0  0  0
 19 52  1  0  0  0  0
 21 53  1  0  0  0  0
 22 54  1  0  0  0  0
 25 55  1  0  0  0  0
 25 56  1  0  0  0  0
 25 57  1  0  0  0  0
 28 58  1  0  0  0  0
 28 59  1  0  0  0  0
 28 60  1  0  0  0  0
 29 61  1  0  0  0  0
 30 62  1  0  0  0  0
 30 63  1  0  0  0  0
 30 64  1  0  0  0  0
 31 65  1  0  0  0  0
 32 66  1  0  0  0  0
 32 67  1  0  0  0  0
 32 68  1  0  0  0  0
 33 69  1  0  0  0  0
 33 70  1  0  0  0  0
 33 71  1  0  0  0  0
  1 72  1  0  0  0  0
M  CHG  1   1   1
M  END
