 xtb: 6.6.1 (8d0f1dd)
          06052419573D

 25 26  0     0  0            999 V2000
    3.2339    0.9869    0.0366 C   0  0  0  0  0  0  0  0  0  0  0  0
    3.3948   -0.3596    0.0137 N   0  0  0  0  0  0  0  0  0  0  0  0
    2.6654   -1.3694   -0.0033 C   0  0  0  0  0  0  0  0  0  0  0  0
    1.2848   -1.5323   -0.0125 N   0  0  0  0  0  0  0  0  0  0  0  0
    0.1865   -0.7239   -0.0051 C   0  0  0  0  0  0  0  0  0  0  0  0
   -0.0332    0.6749   -0.0079 C   0  0  0  0  0  0  0  0  0  0  0  0
    0.7773    1.7815   -0.0158 C   0  0  0  0  0  0  0  0  0  0  0  0
    0.7446    2.9572   -0.0449 O   0  0  0  0  0  0  0  0  0  0  0  0
   -1.4338    0.8613   -0.0033 N   0  0  0  0  0  0  0  0  0  0  0  0
   -2.1713    2.1032   -0.0080 C   0  0  0  0  0  0  0  0  0  0  0  0
   -2.0640   -0.3409    0.0013 C   0  0  0  0  0  0  0  0  0  0  0  0
   -3.2313   -0.5902    0.0074 O   0  0  0  0  0  0  0  0  0  0  0  0
   -1.0227   -1.3125   -0.0003 N   0  0  0  0  0  0  0  0  0  0  0  0
   -1.3393   -2.7172    0.0021 C   0  0  0  0  0  0  0  0  0  0  0  0
    3.6489    1.4206    0.9501 H   0  0  0  0  0  0  0  0  0  0  0  0
    3.6969    1.4556   -0.8357 H   0  0  0  0  0  0  0  0  0  0  0  0
    2.0954    1.3195    0.0134 H   0  0  0  0  0  0  0  0  0  0  0  0
    3.1751   -2.3248   -0.0144 H   0  0  0  0  0  0  0  0  0  0  0  0
   -1.4960    2.9520    0.0446 H   0  0  0  0  0  0  0  0  0  0  0  0
   -2.7669    2.1712   -0.9192 H   0  0  0  0  0  0  0  0  0  0  0  0
   -2.8459    2.1229    0.8484 H   0  0  0  0  0  0  0  0  0  0  0  0
   -0.9537   -3.2121    0.8951 H   0  0  0  0  0  0  0  0  0  0  0  0
   -0.9712   -3.2111   -0.8989 H   0  0  0  0  0  0  0  0  0  0  0  0
   -2.4290   -2.7834    0.0122 H   0  0  0  0  0  0  0  0  0  0  0  0
    1.0151   -2.5114   -0.0242 H   0  0  0  0  0  0  0  0  0  0  0  0
  1  2  1  0  0  0  0
  2  3  2  0  0  0  0
  3  4  1  0  0  0  0
  4  5  1  0  0  0  0
  5  6  4  0  0  0  0
  6  7  4  0  0  0  0
  7  8  2  0  0  0  0
  6  9  1  0  0  0  0
  9 10  1  0  0  0  0
  9 11  1  0  0  0  0
 11 12  2  0  0  0  0
  5 13  4  0  0  0  0
 11 13  1  0  0  0  0
 13 14  1  0  0  0  0
  1 15  1  0  0  0  0
  1 16  1  0  0  0  0
  1 17  1  0  0  0  0
  7 17  1  0  0  0  0
  3 18  1  0  0  0  0
 10 19  1  0  0  0  0
 10 20  1  0  0  0  0
 10 21  1  0  0  0  0
 14 22  1  0  0  0  0
 14 23  1  0  0  0  0
 14 24  1  0  0  0  0
  4 25  1  0  0  0  0
M  CHG  1   1   1
M  END
