 xtb: 6.6.1 (8d0f1dd)
          06052419583D

 25 25  0     0  0            999 V2000
    3.1579    1.4184    0.0060 C   0  0  0  0  0  0  0  0  0  0  0  0
    2.3564    0.2786   -0.0259 N   0  0  0  0  0  0  0  0  0  0  0  0
    2.5560   -2.3490   -0.2344 C   0  0  0  0  0  0  0  0  0  0  0  0
    1.2724   -2.2405   -0.1332 N   0  0  0  0  0  0  0  0  0  0  0  0
    0.4707   -1.1128   -0.0525 C   0  0  0  0  0  0  0  0  0  0  0  0
    1.0630    0.1696   -0.0161 C   0  0  0  0  0  0  0  0  0  0  0  0
    0.1501    1.3486    0.0446 C   0  0  0  0  0  0  0  0  0  0  0  0
    0.5578    2.4925    0.0566 O   0  0  0  0  0  0  0  0  0  0  0  0
   -1.1944    1.0572    0.0882 N   0  0  0  0  0  0  0  0  0  0  0  0
   -2.1414    2.1603    0.1492 C   0  0  0  0  0  0  0  0  0  0  0  0
   -1.7612   -0.2023    0.0748 C   0  0  0  0  0  0  0  0  0  0  0  0
   -2.9548   -0.3619    0.1260 O   0  0  0  0  0  0  0  0  0  0  0  0
   -0.8826   -1.2832   -0.0058 N   0  0  0  0  0  0  0  0  0  0  0  0
   -1.4868   -2.6029   -0.0400 C   0  0  0  0  0  0  0  0  0  0  0  0
    2.5670    2.3286    0.1757 H   0  0  0  0  0  0  0  0  0  0  0  0
    3.9070    1.3102    0.7969 H   0  0  0  0  0  0  0  0  0  0  0  0
    3.6947    1.5193   -0.9446 H   0  0  0  0  0  0  0  0  0  0  0  0
    3.2287   -1.5024   -0.2815 H   0  0  0  0  0  0  0  0  0  0  0  0
   -1.5859    3.0958    0.1628 H   0  0  0  0  0  0  0  0  0  0  0  0
   -2.8024    2.1258   -0.7183 H   0  0  0  0  0  0  0  0  0  0  0  0
   -2.7542    2.0690    1.0472 H   0  0  0  0  0  0  0  0  0  0  0  0
   -1.1942   -3.1945    0.8300 H   0  0  0  0  0  0  0  0  0  0  0  0
   -1.2428   -3.1244   -0.9676 H   0  0  0  0  0  0  0  0  0  0  0  0
   -2.5686   -2.4600   -0.0034 H   0  0  0  0  0  0  0  0  0  0  0  0
    0.7478   -3.1218   -0.1035 H   0  0  0  0  0  0  0  0  0  0  0  0
  1  2  1  0  0  0  0
  3  4  2  0  0  0  0
  4  5  1  0  0  0  0
  2  6  4  0  0  0  0
  5  6  4  0  0  0  0
  6  7  1  0  0  0  0
  7  8  2  0  0  0  0
  7  9  1  0  0  0  0
  9 10  1  0  0  0  0
  9 11  1  0  0  0  0
 11 12  2  0  0  0  0
  5 13  1  0  0  0  0
 11 13  1  0  0  0  0
 13 14  1  0  0  0  0
  1 15  1  0  0  0  0
  1 16  1  0  0  0  0
  1 17  1  0  0  0  0
  3 18  1  0  0  0  0
 10 19  1  0  0  0  0
 10 20  1  0  0  0  0
 10 21  1  0  0  0  0
 14 22  1  0  0  0  0
 14 23  1  0  0  0  0
 14 24  1  0  0  0  0
  4 25  1  0  0  0  0
M  CHG  1   1   1
M  END
