          62
 
N             -1.01344024        1.39124808        2.18885378
C             -1.25486751        1.95325065        1.05670186
C             -2.20395951        1.52901636        0.10035308
C             -3.07404877        0.40856321        0.26998980
C             -4.02964669        0.04832093       -0.71104191
C             -4.84297386       -1.05462831       -0.56454766
O             -5.78653804       -1.45391281       -1.44975778
C             -6.04110466       -0.66514950       -2.58484155
C             -4.72029376       -1.88284438        0.58675324
O             -5.53094873       -2.95670399        0.62012904
C             -5.46570942       -3.83269346        1.72061380
C             -3.79853080       -1.52304488        1.56482302
C             -3.00693508       -0.40449143        1.41914409
C             -2.15778304        2.25325477       -1.21302527
C             -1.31922047        1.44602438       -2.25804915
C              0.08253882        1.34198997       -1.81860052
N              0.60559115        0.31386786       -1.17330050
C              1.97044999        0.35786132       -0.70609084
C              2.93143529       -0.39037326       -1.65135569
C              4.33994021       -0.28305792       -1.13717905
C              5.05538813        0.89212358       -1.30106369
C              6.33951418        1.01839874       -0.79570763
C              6.93706114       -0.03371785       -0.11708781
O              8.17351194       -0.02072023        0.41827790
C              8.95175075        1.14904614        0.31397925
C              6.21697227       -1.24842336        0.04392817
O              6.87895853       -2.22477756        0.69811292
C              6.26705414       -3.48179870        0.86151816
C              4.92958500       -1.34726406       -0.46045985
C             -0.10105736       -0.93351701       -0.99863578
H             -4.14191990        0.65309183       -1.59405395
H             -6.35155064        0.34769696       -2.30848310
H             -6.85788318       -1.15957530       -3.10834849
H             -5.17027011       -0.61470352       -3.24576554
H             -5.72640001       -3.32519049        2.65418330
H             -6.19732240       -4.61307995        1.51792385
H             -4.47297845       -4.28305751        1.81582341
H             -3.69368896       -2.12104094        2.45587675
H             -2.30235214       -0.13404490        2.18903710
H             -3.15192088        2.41047347       -1.62929458
H             -1.69504556        3.23394967       -1.08747075
H             -1.77786567        0.46685113       -2.38678009
H             -1.35783249        1.98925419       -3.20548622
H             -0.69036638        2.85043041        0.75026571
H              0.71046457        2.21329440       -1.92522963
H              2.01376078       -0.08968033        0.29111545
H              2.29159930        1.39864654       -0.62594571
H              2.86264706        0.05699993       -2.64595335
H              2.63768097       -1.43893929       -1.72524826
H              4.61770164        1.72065904       -1.83711532
H              6.87125846        1.94413124       -0.94177156
H              8.46447614        1.99873958        0.80245691
H              9.16232527        1.39857023       -0.73042533
H              9.88559896        0.92573016        0.82642013
H              7.00091979       -4.09857074        1.37679116
H              5.36150224       -3.41206915        1.47267077
H              6.02442474       -3.93832982       -0.10305713
H              4.37348899       -2.26381440       -0.34008350
H             -0.40474737       -1.34742527       -1.96272467
H             -0.98859598       -0.79211772       -0.37936504
H              0.55136897       -1.64764532       -0.50517778
H             -0.31412741        1.84271233        2.76600371
