          24
 
C              3.23049120        1.12536036        0.04416494
N              2.27471907        0.05118219        0.01105133
C              2.54049913       -1.25205016        0.00511954
N              1.38443127       -1.95628762        0.00046736
C              0.34988091       -1.06932776        0.00435698
C              0.90440732        0.20435385        0.01108448
C              0.10509148        1.39205879        0.00048131
O              0.48626485        2.54098178       -0.01543728
N             -1.29781359        1.07712730        0.00777751
C             -2.15300797        2.10893603        0.01222654
C             -1.86562035       -0.23046259        0.01880639
O             -3.05434442       -0.39100832        0.03300195
N             -0.97776651       -1.30403965        0.00174440
C             -1.51031515       -2.65440657        0.00872904
H              3.69211626        1.19042493        1.03087939
H              4.00985920        0.96108971       -0.69847483
H              2.71352073        2.06161656       -0.16212958
H              3.52012202       -1.68607722        0.00346322
H             -1.73812187        3.10016947        0.02048221
H             -3.20812506        1.90986767        0.01604472
H             -1.22291152       -3.17210524        0.92431133
H             -1.15755650       -3.20484001       -0.86297270
H             -2.59608326       -2.58301909       -0.03085606
H              1.31622035       -2.96379088       -0.00509031
