          24
 
C              3.37671471        0.59159879        0.01197171
N              2.25899644       -0.31125063       -0.01318082
C              2.31405235       -1.64822360       -0.02687302
N              1.05536787       -2.15923455       -0.02646369
C              0.17665621       -1.11568157       -0.01230932
C              0.92935317        0.05606524       -0.00514035
C              0.33225957        1.35267651       -0.00443196
O              0.88865861        2.43224087       -0.00054016
N             -1.10704884        1.26878780       -0.01667110
C             -1.78519605        2.42736227       -0.03748099
C             -1.87523028        0.07425339       -0.00501284
O             -3.07830123        0.10652458        0.00240247
N             -1.17405228       -1.13049623       -0.00103694
C             -1.92251632       -2.37171432        0.00253446
H              3.91080783        0.50827354        0.96004846
H              4.06663608        0.36374368       -0.80038441
H              3.00648981        1.61034374       -0.09673222
H              3.21208825       -2.23126253       -0.03668386
H             -1.21774347        3.34040706       -0.04207094
H             -2.85801700        2.39980924       -0.05133038
H             -1.65113156       -2.97624446        0.86833556
H             -1.74223496       -2.93088643       -0.91667219
H             -2.98091628       -2.12095341        0.06164290
H              0.82851620       -3.14254731       -0.04187464
