 xtb: 6.6.1 (8d0f1dd)
          06052419593D

 25 25  0     0  0            999 V2000
    3.0119    1.1493   -0.0217 C   0  0  0  0  0  0  0  0  0  0  0  0
    2.2182   -0.0472   -0.0305 N   0  0  0  0  0  0  0  0  0  0  0  0
    2.6461   -1.2973   -0.0663 C   0  0  0  0  0  0  0  0  0  0  0  0
    1.5938   -2.1447   -0.0522 N   0  0  0  0  0  0  0  0  0  0  0  0
    0.4475   -1.3962   -0.0047 C   0  0  0  0  0  0  0  0  0  0  0  0
    0.8493   -0.0659    0.0098 C   0  0  0  0  0  0  0  0  0  0  0  0
   -0.1550    1.0121    0.0444 C   0  0  0  0  0  0  0  0  0  0  0  0
    0.1463    2.1929    0.0435 O   0  0  0  0  0  0  0  0  0  0  0  0
   -1.4057    0.5363    0.0659 N   0  0  0  0  0  0  0  0  0  0  0  0
   -2.5272    3.8711    0.0203 C   0  0  0  0  0  0  0  0  0  0  0  0
   -1.8432   -0.7154    0.0626 C   0  0  0  0  0  0  0  0  0  0  0  0
   -2.9931   -1.0600    0.0854 O   0  0  0  0  0  0  0  0  0  0  0  0
   -0.8257   -1.7821    0.0220 N   0  0  0  0  0  0  0  0  0  0  0  0
   -1.2447   -3.1623    0.0073 C   0  0  0  0  0  0  0  0  0  0  0  0
    2.8651    1.6824    0.9191 H   0  0  0  0  0  0  0  0  0  0  0  0
    4.0634    0.9024   -0.1459 H   0  0  0  0  0  0  0  0  0  0  0  0
    2.6842    1.8116   -0.8239 H   0  0  0  0  0  0  0  0  0  0  0  0
    3.6731   -1.6049   -0.1030 H   0  0  0  0  0  0  0  0  0  0  0  0
   -1.5450    3.4292    0.0473 H   0  0  0  0  0  0  0  0  0  0  0  0
   -2.9972    4.0852   -0.9197 H   0  0  0  0  0  0  0  0  0  0  0  0
   -3.0464    4.0905    0.9329 H   0  0  0  0  0  0  0  0  0  0  0  0
   -0.8900   -3.6844    0.8977 H   0  0  0  0  0  0  0  0  0  0  0  0
   -0.8850   -3.6675   -0.8907 H   0  0  0  0  0  0  0  0  0  0  0  0
   -2.3354   -3.1639    0.0059 H   0  0  0  0  0  0  0  0  0  0  0  0
    1.6552   -3.1529   -0.0743 H   0  0  0  0  0  0  0  0  0  0  0  0
  1  2  1  0  0  0  0
  2  3  4  0  0  0  0
  3  4  4  0  0  0  0
  4  5  1  0  0  0  0
  2  6  1  0  0  0  0
  5  6  4  0  0  0  0
  6  7  1  0  0  0  0
  7  8  2  0  0  0  0
  7  9  4  0  0  0  0
  9 11  4  0  0  0  0
 11 12  2  0  0  0  0
  5 13  4  0  0  0  0
 11 13  1  0  0  0  0
 13 14  1  0  0  0  0
  1 15  1  0  0  0  0
  1 16  1  0  0  0  0
  1 17  1  0  0  0  0
  3 18  1  0  0  0  0
 10 19  1  0  0  0  0
 10 20  1  0  0  0  0
 10 21  1  0  0  0  0
 14 22  1  0  0  0  0
 14 23  1  0  0  0  0
 14 24  1  0  0  0  0
  4 25  1  0  0  0  0
M  CHG  1   1   1
M  END
