          53
 
N             -1.80313430        2.82069418        2.32692136
C             -1.94301509        2.16200269        1.27516970
C             -3.22434664        2.05908616        0.49465457
C             -3.67527621        0.60662809        0.45698641
C             -4.68325094        0.21085691       -0.42425951
C             -5.15059155       -1.09278057       -0.44878830
O             -6.12340654       -1.55794207       -1.25896731
C             -6.80285382       -0.66347171       -2.10821979
C             -4.59236451       -2.05405544        0.43713924
O             -5.11073946       -3.29432671        0.34535816
C             -4.69165877       -4.28202967        1.25813967
C             -3.59206616       -1.65410946        1.30915604
C             -3.14336575       -0.34051723        1.31912697
C             -2.89038632        2.55808562       -0.93578180
C             -2.02087010        1.59365639       -1.75693092
C             -0.59792455        1.58384921       -1.34139653
N              0.18897299        0.53147773       -1.31594390
C              1.66625901        0.68719357       -1.31571418
C              2.15459042        0.49493830       -2.68457869
C             -0.31302650       -0.80417109       -1.53767611
C             -4.38766338        2.90497053        1.09279967
C             -4.77756578        2.41157879        2.48414865
C             -4.08459150        4.39973501        1.14567904
H             -5.12085182        0.93666409       -1.08934820
H             -7.28161901        0.14181594       -1.54282893
H             -7.56755339       -1.25748504       -2.60500728
H             -6.13291860       -0.23590362       -2.86155814
H             -4.88083128       -3.97738473        2.29188553
H             -5.28596152       -5.16412551        1.02689146
H             -3.62983009       -4.51874565        1.13493607
H             -3.16099272       -2.35726708        2.00302164
H             -2.38728797       -0.05783761        2.03516657
H             -3.82436299        2.71869631       -1.47342690
H             -2.38488461        3.52172447       -0.86275364
H             -2.45577319        0.59492319       -1.73560270
H             -2.04543094        1.94280835       -2.79778337
H             -1.11798596        1.61863309        0.77748188
H             -0.12824464        2.54404521       -1.18065053
H              2.07983478       -0.05279873       -0.62688146
H              1.87896957        1.69035378       -0.93931970
H              2.00435191        1.27048451       -3.41041251
H              2.44342554       -0.47612711       -3.03201526
H             -0.63338717       -0.94969310       -2.57239167
H             -1.15999135       -0.99764537       -0.87561456
H              0.47837619       -1.51905390       -1.31746386
H             -5.24808354        2.75551117        0.42997407
H             -3.95417895        2.55994372        3.17569409
H             -5.04168415        1.35698955        2.46865615
H             -5.63558270        2.97334586        2.84322903
H             -3.21202768        4.58442826        1.76491857
H             -3.91964071        4.81827466        0.15621859
H             -4.93160314        4.91809741        1.58774117
H             -0.88249171        2.84354145        2.75455584
