          68
 
N             -1.79991497        2.78242458        2.48722313
C             -1.81018819        2.14209139        1.41612663
C             -2.99203995        2.03271550        0.49284578
C             -3.46201998        0.58698934        0.43992015
C             -4.38669068        0.18994965       -0.52802942
C             -4.87342298       -1.10618431       -0.57537441
O             -5.76824685       -1.57092943       -1.47019228
C             -6.34780726       -0.68217883       -2.39624537
C             -4.42337819       -2.05878338        0.37970386
O             -4.95697799       -3.28989133        0.26587611
C             -4.64542060       -4.26552641        1.23365858
C             -3.50144443       -1.65856738        1.33438844
C             -3.02914551       -0.35306705        1.36306667
C             -2.48242330        2.48683028       -0.89967577
C             -1.55606436        1.47626064       -1.59844831
C             -0.20288999        1.40290348       -1.00392880
N              0.48233488        0.29031385       -0.79240938
C              1.87210208        0.34237935       -0.40043677
C              2.80860753        0.06897122       -1.59162153
C              4.23850645        0.05658590       -1.12082846
C              5.03371481        1.20067815       -1.24276083
C              6.34544502        1.20267986       -0.79415747
C              6.89945188        0.08075885       -0.19997233
O              8.14437304       -0.02350662        0.26844227
C              9.02747736        1.07106294        0.17688096
C              6.09950175       -1.14365856       -0.03740676
O              6.56210001       -2.16017635        0.49775679
C              4.75907116       -1.07251357       -0.53596272
C             -0.09773041       -1.01609005       -0.99611420
C             -4.19976707        2.91579332        0.92836140
C             -4.76873683        2.46143306        2.27032927
C             -3.86579515        4.40384912        0.98711578
H             -4.74529695        0.91018745       -1.24457828
H             -6.87299148        0.13514867       -1.89310752
H             -7.06387196       -1.27604667       -2.96085965
H             -5.60028427       -0.27141673       -3.08279209
H             -4.93125787       -3.93796809        2.23751751
H             -5.22759782       -5.14345700        0.96087838
H             -3.58078762       -4.51906294        1.22076019
H             -3.15237746       -2.35512490        2.07913286
H             -2.33750198       -0.07146207        2.14192426
H             -3.34164446        2.66161894       -1.54616551
H             -1.95670388        3.43573421       -0.78849176
H             -2.03617807        0.49964391       -1.62923205
H             -1.43565217        1.82221792       -2.63344983
H             -0.92459175        1.62060534        1.00279472
H              0.32836832        2.33308497       -0.86160024
H              2.05342643       -0.40354410        0.37789259
H              2.09680597        1.32831286        0.01170625
H              2.66532444        0.84460845       -2.34555653
H              2.55972716       -0.89615982       -2.03481919
H              4.63260737        2.09043812       -1.70348329
H              6.93489161        2.09822963       -0.91847140
H              8.64005071        1.94171850        0.71442246
H              9.21821590        1.34087869       -0.86594911
H              9.95461693        0.74103443        0.64162975
H              4.16969729       -1.97225902       -0.43829216
H             -0.31582227       -1.19088131       -2.05156732
H             -1.02438252       -1.11525704       -0.42522941
H              0.60121418       -1.77595294       -0.65658217
H             -4.97648108        2.77176076        0.16832811
H             -4.03108877        2.60063946        3.05418879
H             -5.06062157        1.41443336        2.24049533
H             -5.64676563        3.05411893        2.51285337
H             -3.05868300        4.58197026        1.69097076
H             -3.58819593        4.79754391        0.01296167
H             -4.74012146        4.95122857        1.32918928
H             -0.93629643        2.81419889        3.01942504
