          24
 
C              3.35571637        0.59272833        0.01595734
N              2.24265663       -0.31292145       -0.00173427
C              2.32513009       -1.64838593       -0.00995453
N              1.06049902       -2.13688240       -0.00848244
C              0.16731812       -1.10628032        0.00020152
C              0.91841368        0.06376692        0.00547245
C              0.29235103        1.36171119       -0.00185365
O              0.86291281        2.43177854       -0.01400016
N             -1.10367286        1.26034341        0.00243739
C             -1.86353502        2.49816169        0.00006537
C             -1.86687252        0.10278146        0.00484168
O             -3.07035588        0.13591709        0.00837985
N             -1.18039444       -1.11953745        0.00144556
C             -1.93589035       -2.35381003       -0.00199007
H              3.86019552        0.55121821        0.98393000
H              4.07296554        0.31442679       -0.75670289
H              2.99713724        1.60780232       -0.15465320
H             -1.15991826        3.32978417        0.00743306
H             -2.49649554        2.54745846       -0.88802240
H             -2.51002274        2.54155555        0.87855388
H             -1.70311444       -2.94578959        0.88484907
H             -1.71575943       -2.93333047       -0.90031325
H             -2.99523102       -2.09556710        0.00705328
H              0.85860757       -3.12694496       -0.01479833
