 xtb: 6.6.1 (8d0f1dd)
          06052419593D

 25 25  0     0  0            999 V2000
    3.2958    1.0869    0.0441 C   0  0  0  0  0  0  0  0  0  0  0  0
    2.3391    0.0130    0.0092 N   0  0  0  0  0  0  0  0  0  0  0  0
    2.6025   -1.2905    0.0350 C   0  0  0  0  0  0  0  0  0  0  0  0
    1.4461   -1.9933    0.0093 N   0  0  0  0  0  0  0  0  0  0  0  0
    0.4131   -1.1055   -0.0341 C   0  0  0  0  0  0  0  0  0  0  0  0
    0.9701    0.1676   -0.0357 C   0  0  0  0  0  0  0  0  0  0  0  0
    0.1733    1.3556   -0.0984 C   0  0  0  0  0  0  0  0  0  0  0  0
    0.5549    2.5046   -0.1155 O   0  0  0  0  0  0  0  0  0  0  0  0
   -1.2285    1.0403   -0.1524 N   0  0  0  0  0  0  0  0  0  0  0  0
   -2.0847    2.0694   -0.2446 C   0  0  0  0  0  0  0  0  0  0  0  0
   -1.7991   -0.2631   -0.1172 C   0  0  0  0  0  0  0  0  0  0  0  0
   -2.9885   -0.4221   -0.1362 O   0  0  0  0  0  0  0  0  0  0  0  0
   -0.9149   -1.3379   -0.0644 N   0  0  0  0  0  0  0  0  0  0  0  0
   -1.4533   -2.6866   -0.0427 C   0  0  0  0  0  0  0  0  0  0  0  0
    3.8039    1.1089    1.0088 H   0  0  0  0  0  0  0  0  0  0  0  0
    4.0390    0.9575   -0.7420 H   0  0  0  0  0  0  0  0  0  0  0  0
    2.7696    2.0295   -0.1010 H   0  0  0  0  0  0  0  0  0  0  0  0
    3.5810   -1.7256    0.0713 H   0  0  0  0  0  0  0  0  0  0  0  0
   -1.6712    3.0593   -0.2747 H   0  0  0  0  0  0  0  0  0  0  0  0
   -3.1365    1.8625   -0.2852 H   0  0  0  0  0  0  0  0  0  0  0  0
   -4.1155    3.4398    1.3919 H   0  0  0  0  0  0  0  0  0  0  0  0
   -1.1320   -3.2078    0.8585 H   0  0  0  0  0  0  0  0  0  0  0  0
   -1.1400   -3.2358   -0.9306 H   0  0  0  0  0  0  0  0  0  0  0  0
   -2.5397   -2.6079   -0.0399 H   0  0  0  0  0  0  0  0  0  0  0  0
    1.3760   -3.0007    0.0176 H   0  0  0  0  0  0  0  0  0  0  0  0
  1  2  1  0  0  0  0
  2  3  4  0  0  0  0
  3  4  4  0  0  0  0
  4  5  1  0  0  0  0
  2  6  1  0  0  0  0
  5  6  4  0  0  0  0
  6  7  1  0  0  0  0
  7  8  2  0  0  0  0
  7  9  1  0  0  0  0
  9 10  4  0  0  0  0
  9 11  1  0  0  0  0
 11 12  2  0  0  0  0
  5 13  1  0  0  0  0
 11 13  1  0  0  0  0
 13 14  1  0  0  0  0
  1 15  1  0  0  0  0
  1 16  1  0  0  0  0
  1 17  1  0  0  0  0
  3 18  1  0  0  0  0
 10 19  1  0  0  0  0
 10 20  1  0  0  0  0
 14 22  1  0  0  0  0
 14 23  1  0  0  0  0
 14 24  1  0  0  0  0
  4 25  1  0  0  0  0
M  CHG  1   1   1
M  END
