          35
 
C             -1.44567055        0.07329744       -2.21698190
C             -0.27676139        0.30706065       -1.60779485
N              0.36411697       -0.52681137       -0.74187637
C              1.72956505       -0.25822045       -0.37927257
C              2.73613669       -0.76960003       -1.43482323
C              4.14447010       -0.49357063       -1.00035420
C              4.71131644        0.75947878       -1.19481876
C              6.00595439        1.02754712       -0.78247133
C              6.76946110        0.04475439       -0.16474139
O              8.03474533        0.18686202        0.26290016
C              8.70327997        1.40908620        0.05134544
C              6.19617679       -1.24280013        0.04449326
O              7.00513612       -2.13699835        0.64077286
C              6.54915383       -3.45253221        0.85190144
C              4.89435824       -1.48297063       -0.37037929
C             -0.15942818       -1.84877025       -0.51567502
H             -1.99897932       -0.83957450       -2.10506774
H             -1.87522511        0.81480254       -2.86406063
H              0.23707635        1.24521548       -1.77166979
H              1.94188391       -0.73611242        0.58083186
H              1.86260674        0.82022999       -0.25834702
H              2.53053941       -0.26579530       -2.38117543
H              2.58850852       -1.84085392       -1.57602682
H              4.14505366        1.53633668       -1.68546842
H              6.41912312        2.00843954       -0.95207605
H              8.22206679        2.22806594        0.59405981
H              8.75592634        1.65693427       -1.01262898
H              9.70954551        1.26242203        0.43822351
H              7.38144619       -3.97972385        1.31433710
H              5.68756458       -3.47511928        1.52639222
H              6.28939164       -3.94248528       -0.09149429
H              4.45375190       -2.45616452       -0.22047859
H             -0.16200731       -2.44446946       -1.43352480
H             -1.18503552       -1.77586799       -0.14789850
H              0.44540410       -2.35646139        0.23154679
