          24
 
C              3.29428044        0.54781263        0.00572944
N              2.27235776       -0.30181281        0.00240022
C              2.31935669       -1.65582637        0.00510743
N              1.05187004       -2.16481896        0.00502215
C              0.17906940       -1.12468225        0.00055778
C              0.92347671        0.04843574       -0.00018225
C              0.30280171        1.34603486       -0.00216754
O              0.87540046        2.41452740       -0.00726185
N             -1.09559948        1.24336634        0.00236948
C             -1.85651732        2.48099460        0.01972699
C             -1.85691745        0.08914300        0.00240730
O             -3.05966211        0.11618828        0.00555075
N             -1.16794350       -1.13888164       -0.00080623
C             -1.92705651       -2.37253949       -0.00014901
H              3.08692558        1.60276618        0.00389407
H              4.29671318        0.16379229       -0.01116296
H              3.21222983       -2.24399845        0.01363927
H             -1.15262634        3.31108619        0.03555831
H             -2.49222981        2.54192616       -0.86518899
H             -2.49813145        2.51052890        0.90085190
H             -1.69118937       -2.96589422        0.88425820
H             -1.72166225       -2.94873309       -0.90359454
H             -2.98452374       -2.10884920        0.01971999
H              0.82513497       -3.14760120       -0.00013527
