 xtb: 6.6.1 (8d0f1dd)
          04062411163D

 72 73  0     0  0            999 V2000
   -1.9218    3.1212    1.3944 N   0  0  0  0  0  0  0  0  0  0  0  0
   -1.7999    2.0753    0.7251 C   0  0  0  0  0  0  0  0  0  0  0  0
   -2.8829    1.4553   -0.1185 C   0  0  0  0  0  0  0  0  0  0  0  0
   -3.3686    0.2239    0.6156 C   0  0  0  0  0  0  0  0  0  0  0  0
   -4.4540   -0.6938    0.2909 C   0  0  0  0  0  0  0  0  0  0  0  0
   -5.2866   -0.7316   -0.8149 C   0  0  0  0  0  0  0  0  0  0  0  0
   -6.4602   -1.3491   -0.9305 O   0  0  0  0  0  0  0  0  0  0  0  0
   -7.2413   -1.7746    0.1706 C   0  0  0  0  0  0  0  0  0  0  0  0
   -4.5104   -1.6470    1.3741 C   0  0  0  0  0  0  0  0  0  0  0  0
   -4.9362   -0.1113   -1.9422 O   0  0  0  0  0  0  0  0  0  0  0  0
   -5.8618   -0.0766   -3.0226 C   0  0  0  0  0  0  0  0  0  0  0  0
   -3.5354   -1.3385    2.2799 C   0  0  0  0  0  0  0  0  0  0  0  0
   -2.8565   -0.1793    1.8287 C   0  0  0  0  0  0  0  0  0  0  0  0
   -2.2000    1.0583   -1.4538 C   0  0  0  0  0  0  0  0  0  0  0  0
   -1.2584   -0.1492   -1.3248 C   0  0  0  0  0  0  0  0  0  0  0  0
    0.0324    0.1750   -0.6768 C   0  0  0  0  0  0  0  0  0  0  0  0
    0.6923   -0.6109    0.1658 N   0  0  0  0  0  0  0  0  0  0  0  0
    2.0692   -0.3092    0.4859 C   0  0  0  0  0  0  0  0  0  0  0  0
    3.0342   -0.9203   -0.5486 C   0  0  0  0  0  0  0  0  0  0  0  0
    4.4452   -0.4710   -0.2896 C   0  0  0  0  0  0  0  0  0  0  0  0
    4.8229    0.8347   -0.5625 C   0  0  0  0  0  0  0  0  0  0  0  0
    6.1154    1.2682   -0.3144 C   0  0  0  0  0  0  0  0  0  0  0  0
    7.0632    0.3990    0.2062 C   0  0  0  0  0  0  0  0  0  0  0  0
    8.3446    0.7080    0.4818 O   0  0  0  0  0  0  0  0  0  0  0  0
    8.8066    2.0137    0.2237 C   0  0  0  0  0  0  0  0  0  0  0  0
    6.6891   -0.9451    0.4795 C   0  0  0  0  0  0  0  0  0  0  0  0
    7.6748   -1.7261    0.9648 O   0  0  0  0  0  0  0  0  0  0  0  0
    7.4159   -3.0868    1.2162 C   0  0  0  0  0  0  0  0  0  0  0  0
    5.3860   -1.3517    0.2363 C   0  0  0  0  0  0  0  0  0  0  0  0
    0.1230   -1.8362    0.6711 C   0  0  0  0  0  0  0  0  0  0  0  0
   -4.0627    2.4354   -0.3783 C   0  0  0  0  0  0  0  0  0  0  0  0
   -4.8317    2.7371    0.9060 C   0  0  0  0  0  0  0  0  0  0  0  0
   -3.6222    3.7415   -1.0348 C   0  0  0  0  0  0  0  0  0  0  0  0
   -5.1507   -2.5019    1.4139 H   0  0  0  0  0  0  0  0  0  0  0  0
   -7.0399   -2.8219    0.4021 H   0  0  0  0  0  0  0  0  0  0  0  0
   -8.2783   -1.6811   -0.1540 H   0  0  0  0  0  0  0  0  0  0  0  0
   -7.0652   -1.1533    1.0495 H   0  0  0  0  0  0  0  0  0  0  0  0
   -6.8019    0.3859   -2.7169 H   0  0  0  0  0  0  0  0  0  0  0  0
   -5.3844    0.5232   -3.7943 H   0  0  0  0  0  0  0  0  0  0  0  0
   -6.0617   -1.0814   -3.3973 H   0  0  0  0  0  0  0  0  0  0  0  0
   -3.3162   -1.8756    3.1830 H   0  0  0  0  0  0  0  0  0  0  0  0
   -2.0809    0.3176    2.3830 H   0  0  0  0  0  0  0  0  0  0  0  0
   -2.9748    0.8067   -2.1722 H   0  0  0  0  0  0  0  0  0  0  0  0
   -1.6405    1.9129   -1.8369 H   0  0  0  0  0  0  0  0  0  0  0  0
   -1.7780   -0.9573   -0.8124 H   0  0  0  0  0  0  0  0  0  0  0  0
   -1.0327   -0.4930   -2.3430 H   0  0  0  0  0  0  0  0  0  0  0  0
   -0.8556    1.4959    0.6552 H   0  0  0  0  0  0  0  0  0  0  0  0
    0.5728    1.0329   -1.0515 H   0  0  0  0  0  0  0  0  0  0  0  0
    2.3030   -0.6947    1.4798 H   0  0  0  0  0  0  0  0  0  0  0  0
    2.2067    0.7747    0.5009 H   0  0  0  0  0  0  0  0  0  0  0  0
    2.7229   -0.5947   -1.5442 H   0  0  0  0  0  0  0  0  0  0  0  0
    2.9705   -2.0081   -0.5086 H   0  0  0  0  0  0  0  0  0  0  0  0
    4.1112    1.5276   -0.9859 H   0  0  0  0  0  0  0  0  0  0  0  0
    6.3781    2.2890   -0.5382 H   0  0  0  0  0  0  0  0  0  0  0  0
    8.2656    2.7553    0.8195 H   0  0  0  0  0  0  0  0  0  0  0  0
    8.7231    2.2658   -0.8378 H   0  0  0  0  0  0  0  0  0  0  0  0
    9.8556    2.0147    0.5132 H   0  0  0  0  0  0  0  0  0  0  0  0
    8.3617   -3.5059    1.5541 H   0  0  0  0  0  0  0  0  0  0  0  0
    6.6635   -3.2144    2.0009 H   0  0  0  0  0  0  0  0  0  0  0  0
    7.0927   -3.6078    0.3096 H   0  0  0  0  0  0  0  0  0  0  0  0
    5.0928   -2.3690    0.4423 H   0  0  0  0  0  0  0  0  0  0  0  0
    0.0331   -2.5862   -0.1181 H   0  0  0  0  0  0  0  0  0  0  0  0
   -0.8686   -1.6485    1.0901 H   0  0  0  0  0  0  0  0  0  0  0  0
    0.7610   -2.2338    1.4563 H   0  0  0  0  0  0  0  0  0  0  0  0
   -4.7387    1.9304   -1.0711 H   0  0  0  0  0  0  0  0  0  0  0  0
   -4.1949    3.2712    1.6038 H   0  0  0  0  0  0  0  0  0  0  0  0
   -5.1771    1.8221    1.3812 H   0  0  0  0  0  0  0  0  0  0  0  0
   -5.6960    3.3565    0.6792 H   0  0  0  0  0  0  0  0  0  0  0  0
   -2.9314    4.2778   -0.3915 H   0  0  0  0  0  0  0  0  0  0  0  0
   -3.1538    3.5701   -2.0005 H   0  0  0  0  0  0  0  0  0  0  0  0
   -4.4930    4.3722   -1.1946 H   0  0  0  0  0  0  0  0  0  0  0  0
   -1.1177    3.4521    1.9179 H   0  0  0  0  0  0  0  0  0  0  0  0
  1  2  2  0  0  0  0
  2  3  1  0  0  0  0
  3  4  1  0  0  0  0
  4  5  1  0  0  0  0
  5  6  4  0  0  0  0
  6  7  1  0  0  0  0
  7  8  1  0  0  0  0
  5  9  1  0  0  0  0
  6 10  1  0  0  0  0
 10 11  1  0  0  0  0
  9 12  2  0  0  0  0
  4 13  2  0  0  0  0
 12 13  4  0  0  0  0
  3 14  1  0  0  0  0
 14 15  1  0  0  0  0
 15 16  1  0  0  0  0
 16 17  4  0  0  0  0
 17 18  1  0  0  0  0
 18 19  1  0  0  0  0
 19 20  1  0  0  0  0
 20 21  4  0  0  0  0
 21 22  4  0  0  0  0
 22 23  4  0  0  0  0
 23 24  1  0  0  0  0
 24 25  1  0  0  0  0
 23 26  4  0  0  0  0
 26 27  1  0  0  0  0
 27 28  1  0  0  0  0
 20 29  4  0  0  0  0
 26 29  4  0  0  0  0
 17 30  1  0  0  0  0
  3 31  1  0  0  0  0
 31 32  1  0  0  0  0
 31 33  1  0  0  0  0
  9 34  1  0  0  0  0
  8 35  1  0  0  0  0
  8 36  1  0  0  0  0
  8 37  1  0  0  0  0
 11 38  1  0  0  0  0
 11 39  1  0  0  0  0
 11 40  1  0  0  0  0
 12 41  1  0  0  0  0
 13 42  1  0  0  0  0
 14 43  1  0  0  0  0
 14 44  1  0  0  0  0
 15 45  1  0  0  0  0
 15 46  1  0  0  0  0
  2 47  1  0  0  0  0
 16 48  1  0  0  0  0
 18 49  1  0  0  0  0
 18 50  1  0  0  0  0
 19 51  1  0  0  0  0
 19 52  1  0  0  0  0
 21 53  1  0  0  0  0
 22 54  1  0  0  0  0
 25 55  1  0  0  0  0
 25 56  1  0  0  0  0
 25 57  1  0  0  0  0
 28 58  1  0  0  0  0
 28 59  1  0  0  0  0
 28 60  1  0  0  0  0
 29 61  1  0  0  0  0
 30 62  1  0  0  0  0
 30 63  1  0  0  0  0
 30 64  1  0  0  0  0
 31 65  1  0  0  0  0
 32 66  1  0  0  0  0
 32 67  1  0  0  0  0
 32 68  1  0  0  0  0
 33 69  1  0  0  0  0
 33 70  1  0  0  0  0
 33 71  1  0  0  0  0
  1 72  1  0  0  0  0
M  CHG  1   1   1
M  END
