 xtb: 6.6.1 (8d0f1dd)
          04062411173D

 72 74  0     0  0            999 V2000
   -1.1461    2.7494    2.2625 N   0  0  0  0  0  0  0  0  0  0  0  0
   -1.1760    1.9917    1.2705 C   0  0  0  0  0  0  0  0  0  0  0  0
   -2.3229    1.8901    0.3032 C   0  0  0  0  0  0  0  0  0  0  0  0
   -2.9513    0.5099    0.4107 C   0  0  0  0  0  0  0  0  0  0  0  0
   -3.8621    0.0798   -0.5568 C   0  0  0  0  0  0  0  0  0  0  0  0
   -4.4744   -1.1597   -0.4729 C   0  0  0  0  0  0  0  0  0  0  0  0
   -5.3642   -1.6521   -1.3605 O   0  0  0  0  0  0  0  0  0  0  0  0
   -5.7951   -0.8410   -2.4276 C   0  0  0  0  0  0  0  0  0  0  0  0
   -4.1711   -2.0186    0.6177 C   0  0  0  0  0  0  0  0  0  0  0  0
   -4.8062   -3.2082    0.6144 O   0  0  0  0  0  0  0  0  0  0  0  0
   -4.6266   -4.0822    1.7044 C   0  0  0  0  0  0  0  0  0  0  0  0
   -3.2735   -1.5819    1.5787 C   0  0  0  0  0  0  0  0  0  0  0  0
   -2.6730   -0.3333    1.4751 C   0  0  0  0  0  0  0  0  0  0  0  0
   -1.6993    2.0998   -1.1019 C   0  0  0  0  0  0  0  0  0  0  0  0
   -0.9143    0.8918   -1.6450 C   0  0  0  0  0  0  0  0  0  0  0  0
    0.3697    0.6377   -0.9530 C   0  0  0  0  0  0  0  0  0  0  0  0
    0.7935   -0.5581   -0.5517 N   0  0  0  0  0  0  0  0  0  0  0  0
    2.1667   -0.7528   -0.1351 C   0  0  0  0  0  0  0  0  0  0  0  0
    2.9758   -1.3585   -1.2636 C   0  0  0  0  0  0  0  0  0  0  0  0
    3.7704   -0.4979   -2.2223 C   0  0  0  0  0  0  0  0  0  0  0  0
    3.9166    0.9367   -2.0120 C   0  0  0  0  0  0  0  0  0  0  0  0
    4.5244    1.4400   -0.9151 C   0  0  0  0  0  0  0  0  0  0  0  0
    5.1790    0.6085    0.0468 C   0  0  0  0  0  0  0  0  0  0  0  0
    5.8517    1.0883    1.1269 O   0  0  0  0  0  0  0  0  0  0  0  0
    6.0450    2.4756    1.2706 C   0  0  0  0  0  0  0  0  0  0  0  0
    5.2368   -0.7591   -0.1415 C   0  0  0  0  0  0  0  0  0  0  0  0
    6.0360   -1.4580    0.6921 O   0  0  0  0  0  0  0  0  0  0  0  0
    6.0683   -2.8651    0.6276 C   0  0  0  0  0  0  0  0  0  0  0  0
    4.4872   -1.4053   -1.2209 C   0  0  0  0  0  0  0  0  0  0  0  0
   -0.0532   -1.7266   -0.6015 C   0  0  0  0  0  0  0  0  0  0  0  0
   -3.4409    2.9470    0.5487 C   0  0  0  0  0  0  0  0  0  0  0  0
   -4.1339    2.7267    1.8914 C   0  0  0  0  0  0  0  0  0  0  0  0
   -2.9390    4.3853    0.4589 C   0  0  0  0  0  0  0  0  0  0  0  0
   -4.1066    0.7323   -1.3786 H   0  0  0  0  0  0  0  0  0  0  0  0
   -6.2652    0.0793   -2.0681 H   0  0  0  0  0  0  0  0  0  0  0  0
   -6.5318   -1.4345   -2.9654 H   0  0  0  0  0  0  0  0  0  0  0  0
   -4.9703   -0.5921   -3.1036 H   0  0  0  0  0  0  0  0  0  0  0  0
   -4.9359   -3.6180    2.6454 H   0  0  0  0  0  0  0  0  0  0  0  0
   -5.2637   -4.9401    1.4988 H   0  0  0  0  0  0  0  0  0  0  0  0
   -3.5867   -4.4150    1.7854 H   0  0  0  0  0  0  0  0  0  0  0  0
   -3.0400   -2.2028    2.4282 H   0  0  0  0  0  0  0  0  0  0  0  0
   -2.0013   -0.0163    2.2576 H   0  0  0  0  0  0  0  0  0  0  0  0
   -2.4962    2.3267   -1.8096 H   0  0  0  0  0  0  0  0  0  0  0  0
   -1.0376    2.9661   -1.0635 H   0  0  0  0  0  0  0  0  0  0  0  0
   -1.5529    0.0109   -1.6337 H   0  0  0  0  0  0  0  0  0  0  0  0
   -0.6769    1.1211   -2.6921 H   0  0  0  0  0  0  0  0  0  0  0  0
   -0.3338    1.3392    0.9646 H   0  0  0  0  0  0  0  0  0  0  0  0
    1.0919    1.4396   -0.9181 H   0  0  0  0  0  0  0  0  0  0  0  0
    2.1792   -1.4142    0.7379 H   0  0  0  0  0  0  0  0  0  0  0  0
    2.5979    0.2063    0.1557 H   0  0  0  0  0  0  0  0  0  0  0  0
    3.7406   -0.8107   -3.2548 H   0  0  0  0  0  0  0  0  0  0  0  0
    2.5077   -2.2293   -1.7048 H   0  0  0  0  0  0  0  0  0  0  0  0
    3.5583    1.5930   -2.7891 H   0  0  0  0  0  0  0  0  0  0  0  0
    4.5975    2.5093   -0.7967 H   0  0  0  0  0  0  0  0  0  0  0  0
    5.0986    3.0042    1.4277 H   0  0  0  0  0  0  0  0  0  0  0  0
    6.5667    2.9038    0.4096 H   0  0  0  0  0  0  0  0  0  0  0  0
    6.6664    2.5885    2.1570 H   0  0  0  0  0  0  0  0  0  0  0  0
    6.6150   -3.1839    1.5134 H   0  0  0  0  0  0  0  0  0  0  0  0
    5.0629   -3.2959    0.6443 H   0  0  0  0  0  0  0  0  0  0  0  0
    6.6022   -3.2157   -0.2609 H   0  0  0  0  0  0  0  0  0  0  0  0
    4.9340   -2.3159   -1.5996 H   0  0  0  0  0  0  0  0  0  0  0  0
   -0.2736   -2.0154   -1.6314 H   0  0  0  0  0  0  0  0  0  0  0  0
   -0.9950   -1.5365   -0.0811 H   0  0  0  0  0  0  0  0  0  0  0  0
    0.4506   -2.5554   -0.1108 H   0  0  0  0  0  0  0  0  0  0  0  0
   -4.1852    2.7965   -0.2421 H   0  0  0  0  0  0  0  0  0  0  0  0
   -3.4261    2.8633    2.7025 H   0  0  0  0  0  0  0  0  0  0  0  0
   -4.5588    1.7281    1.9563 H   0  0  0  0  0  0  0  0  0  0  0  0
   -4.9381    3.4482    2.0084 H   0  0  0  0  0  0  0  0  0  0  0  0
   -2.1810    4.5668    1.2145 H   0  0  0  0  0  0  0  0  0  0  0  0
   -2.5309    4.6136   -0.5221 H   0  0  0  0  0  0  0  0  0  0  0  0
   -3.7687    5.0636    0.6401 H   0  0  0  0  0  0  0  0  0  0  0  0
   -0.3049    2.7556    2.8310 H   0  0  0  0  0  0  0  0  0  0  0  0
  1  2  2  0  0  0  0
  2  3  1  0  0  0  0
  3  4  1  0  0  0  0
  4  5  4  0  0  0  0
  5  6  4  0  0  0  0
  6  7  1  0  0  0  0
  7  8  1  0  0  0  0
  6  9  4  0  0  0  0
  9 10  1  0  0  0  0
 10 11  1  0  0  0  0
  9 12  4  0  0  0  0
  4 13  4  0  0  0  0
 12 13  4  0  0  0  0
  3 14  1  0  0  0  0
 14 15  1  0  0  0  0
 15 16  1  0  0  0  0
 16 17  4  0  0  0  0
 17 18  1  0  0  0  0
 18 19  1  0  0  0  0
 19 20  1  0  0  0  0
 20 21  1  0  0  0  0
 21 22  2  0  0  0  0
 22 23  1  0  0  0  0
 23 24  1  0  0  0  0
 24 25  1  0  0  0  0
 23 26  4  0  0  0  0
 26 27  1  0  0  0  0
 27 28  1  0  0  0  0
 19 29  1  0  0  0  0
 20 29  1  0  0  0  0
 26 29  1  0  0  0  0
 17 30  1  0  0  0  0
  3 31  1  0  0  0  0
 31 32  1  0  0  0  0
 31 33  1  0  0  0  0
  5 34  1  0  0  0  0
  8 35  1  0  0  0  0
  8 36  1  0  0  0  0
  8 37  1  0  0  0  0
 11 38  1  0  0  0  0
 11 39  1  0  0  0  0
 11 40  1  0  0  0  0
 12 41  1  0  0  0  0
 13 42  1  0  0  0  0
 14 43  1  0  0  0  0
 14 44  1  0  0  0  0
 15 45  1  0  0  0  0
 15 46  1  0  0  0  0
  2 47  1  0  0  0  0
 16 48  1  0  0  0  0
 18 49  1  0  0  0  0
 18 50  1  0  0  0  0
 20 51  1  0  0  0  0
 19 52  1  0  0  0  0
 21 53  1  0  0  0  0
 22 54  1  0  0  0  0
 25 55  1  0  0  0  0
 25 56  1  0  0  0  0
 25 57  1  0  0  0  0
 28 58  1  0  0  0  0
 28 59  1  0  0  0  0
 28 60  1  0  0  0  0
 29 61  1  0  0  0  0
 30 62  1  0  0  0  0
 30 63  1  0  0  0  0
 30 64  1  0  0  0  0
 31 65  1  0  0  0  0
 32 66  1  0  0  0  0
 32 67  1  0  0  0  0
 32 68  1  0  0  0  0
 33 69  1  0  0  0  0
 33 70  1  0  0  0  0
 33 71  1  0  0  0  0
  1 72  1  0  0  0  0
M  CHG  1   1   1
M  END
