 xtb: 6.6.1 (8d0f1dd)
          06052419573D

 25 26  0     0  0            999 V2000
    3.1629    1.3018    0.0343 C   0  0  0  0  0  0  0  0  0  0  0  0
    2.1930    0.2773    0.0086 N   0  0  0  0  0  0  0  0  0  0  0  0
    3.5382   -0.1387   -0.0854 C   0  0  0  0  0  0  0  0  0  0  0  0
    1.1576   -2.2706   -0.1183 N   0  0  0  0  0  0  0  0  0  0  0  0
    0.3543   -1.2917   -0.0504 C   0  0  0  0  0  0  0  0  0  0  0  0
    0.9389    0.0564    0.0191 C   0  0  0  0  0  0  0  0  0  0  0  0
    0.0612    1.2759    0.1103 C   0  0  0  0  0  0  0  0  0  0  0  0
    0.5598    2.3734    0.1862 O   0  0  0  0  0  0  0  0  0  0  0  0
   -1.2719    1.0200    0.0857 N   0  0  0  0  0  0  0  0  0  0  0  0
   -2.1998    2.1421    0.1347 C   0  0  0  0  0  0  0  0  0  0  0  0
   -1.8691   -0.2439    0.0106 C   0  0  0  0  0  0  0  0  0  0  0  0
   -3.0611   -0.3543   -0.0115 O   0  0  0  0  0  0  0  0  0  0  0  0
   -1.0209   -1.3452   -0.0318 N   0  0  0  0  0  0  0  0  0  0  0  0
   -1.6547   -2.6567   -0.0909 C   0  0  0  0  0  0  0  0  0  0  0  0
    3.2899    1.8282    0.9748 H   0  0  0  0  0  0  0  0  0  0  0  0
    3.8462   -0.5440   -1.0437 H   0  0  0  0  0  0  0  0  0  0  0  0
    3.2074    1.9592   -0.8276 H   0  0  0  0  0  0  0  0  0  0  0  0
    3.9399   -0.6771    0.7651 H   0  0  0  0  0  0  0  0  0  0  0  0
   -1.6241    3.0622    0.1860 H   0  0  0  0  0  0  0  0  0  0  0  0
   -2.8275    2.1353   -0.7561 H   0  0  0  0  0  0  0  0  0  0  0  0
   -2.8439    2.0484    1.0088 H   0  0  0  0  0  0  0  0  0  0  0  0
   -1.3584   -3.2573    0.7703 H   0  0  0  0  0  0  0  0  0  0  0  0
   -1.3837   -3.1677   -1.0158 H   0  0  0  0  0  0  0  0  0  0  0  0
   -2.7326   -2.5112   -0.0692 H   0  0  0  0  0  0  0  0  0  0  0  0
    0.7588   -3.2037   -0.1627 H   0  0  0  0  0  0  0  0  0  0  0  0
  1  2  1  0  0  0  0
  1  3  1  0  0  0  0
  2  3  1  0  0  0  0
  4  5  2  0  0  0  0
  2  6  2  0  0  0  0
  5  6  1  0  0  0  0
  6  7  1  0  0  0  0
  7  8  2  0  0  0  0
  7  9  1  0  0  0  0
  9 10  1  0  0  0  0
  9 11  1  0  0  0  0
 11 12  2  0  0  0  0
  5 13  1  0  0  0  0
 11 13  1  0  0  0  0
 13 14  1  0  0  0  0
  1 15  1  0  0  0  0
  3 16  1  0  0  0  0
  1 17  1  0  0  0  0
  3 18  1  0  0  0  0
 10 19  1  0  0  0  0
 10 20  1  0  0  0  0
 10 21  1  0  0  0  0
 14 22  1  0  0  0  0
 14 23  1  0  0  0  0
 14 24  1  0  0  0  0
  4 25  1  0  0  0  0
M  CHG  1   1   1
M  END
