 xtb: 6.6.1 (8d0f1dd)
          06052420003D

 25 25  0     0  0            999 V2000
    3.1645    1.2538    0.0163 C   0  0  0  0  0  0  0  0  0  0  0  0
    2.2328    0.1623   -0.0004 N   0  0  0  0  0  0  0  0  0  0  0  0
    2.5509   -1.1404   -0.0077 C   0  0  0  0  0  0  0  0  0  0  0  0
    1.3966   -1.8459   -0.0071 N   0  0  0  0  0  0  0  0  0  0  0  0
    0.3348   -0.9912    0.0006 C   0  0  0  0  0  0  0  0  0  0  0  0
    0.8662    0.2924    0.0059 C   0  0  0  0  0  0  0  0  0  0  0  0
    0.0149    1.4619   -0.0012 C   0  0  0  0  0  0  0  0  0  0  0  0
    0.3888    2.6114   -0.0122 O   0  0  0  0  0  0  0  0  0  0  0  0
   -1.3362    1.1116    0.0019 N   0  0  0  0  0  0  0  0  0  0  0  0
   -2.3055    2.1940   -0.0005 C   0  0  0  0  0  0  0  0  0  0  0  0
   -1.8822   -0.1616    0.0031 C   0  0  0  0  0  0  0  0  0  0  0  0
   -3.0688   -0.3470    0.0049 O   0  0  0  0  0  0  0  0  0  0  0  0
   -0.9855   -1.2460    0.0008 N   0  0  0  0  0  0  0  0  0  0  0  0
   -1.5140   -2.5934   -0.0037 C   0  0  0  0  0  0  0  0  0  0  0  0
    3.6697    1.3046    0.9832 H   0  0  0  0  0  0  0  0  0  0  0  0
    3.9204    1.1114   -0.7558 H   0  0  0  0  0  0  0  0  0  0  0  0
    2.6289    2.1877   -0.1533 H   0  0  0  0  0  0  0  0  0  0  0  0
    4.3562   -3.2962   -0.0118 H   0  0  0  0  0  0  0  0  0  0  0  0
   -1.7643    3.1383    0.0079 H   0  0  0  0  0  0  0  0  0  0  0  0
   -2.9372    2.1294   -0.8885 H   0  0  0  0  0  0  0  0  0  0  0  0
   -2.9507    2.1200    0.8768 H   0  0  0  0  0  0  0  0  0  0  0  0
   -1.1844   -3.1353    0.8839 H   0  0  0  0  0  0  0  0  0  0  0  0
   -1.1955   -3.1252   -0.9016 H   0  0  0  0  0  0  0  0  0  0  0  0
   -2.6017   -2.5239    0.0032 H   0  0  0  0  0  0  0  0  0  0  0  0
    1.3617   -2.8545   -0.0137 H   0  0  0  0  0  0  0  0  0  0  0  0
  1  2  1  0  0  0  0
  2  3  4  0  0  0  0
  3  4  4  0  0  0  0
  4  5  1  0  0  0  0
  2  6  1  0  0  0  0
  5  6  4  0  0  0  0
  6  7  1  0  0  0  0
  7  8  2  0  0  0  0
  7  9  1  0  0  0  0
  9 10  1  0  0  0  0
  9 11  1  0  0  0  0
 11 12  2  0  0  0  0
  5 13  4  0  0  0  0
 11 13  1  0  0  0  0
 13 14  1  0  0  0  0
  1 15  1  0  0  0  0
  1 16  1  0  0  0  0
  1 17  1  0  0  0  0
 10 19  1  0  0  0  0
 10 20  1  0  0  0  0
 10 21  1  0  0  0  0
 14 22  1  0  0  0  0
 14 23  1  0  0  0  0
 14 24  1  0  0  0  0
  4 25  1  0  0  0  0
M  CHG  1   1   1
M  END
