          71
 
N             -1.68832350        2.66956310        2.51216760
C             -1.70399460        2.06648373        1.41876009
C             -2.88094191        2.01221895        0.48468374
C             -3.42313412        0.59184047        0.43246278
C             -4.39221445        0.25534939       -0.51507338
C             -4.92727415       -1.02003129       -0.58209424
O             -5.87238631       -1.42372167       -1.45646201
C             -6.46332358       -0.47881347       -2.31723068
C             -4.47373308       -2.01774376        0.32246583
O             -5.03994779       -3.23298419        0.17744011
C             -4.70771458       -4.25595483        1.08663236
C             -3.51453788       -1.67658819        1.26213812
C             -2.99941860       -0.38707537        1.31729617
C             -2.33731623        2.42224423       -0.90948954
C             -1.48204730        1.34627395       -1.60446590
C             -0.14624750        1.17025704       -0.99312170
N              0.43686315        0.00329084       -0.73118525
C              1.81265572       -0.04424155       -0.29961503
C              2.76194601       -0.46065179       -1.44109841
C              4.19052855       -0.29976707       -1.00526380
C              4.84435540        0.91290665       -1.18379488
C              6.15117086        1.08158747       -0.77013637
C              6.82809899        0.03234657       -0.15252905
O              8.10028443        0.08720141        0.31236234
C              8.97047534        1.01033138        0.01796123
C              6.16854977       -1.21147602        0.04713641
O              6.91313065       -2.16480598        0.63396616
C              6.36148424       -3.44737580        0.83637453
C              4.85771689       -1.35182640       -0.38194580
C             -0.24581886       -1.25404800       -0.92184819
C             -4.04070781        2.96421219        0.90279460
C             -4.66597840        2.53353291        2.22750773
C             -3.61633267        4.42785805        0.98528138
H             -4.74391172        1.00809989       -1.20075961
H             -6.93047161        0.33673670       -1.75706251
H             -7.22933619       -1.02322668       -2.86588047
H             -5.73629127       -0.06853721       -3.02578419
H             -4.94880914       -3.97195363        2.11522498
H             -5.31399884       -5.11197747        0.79719179
H             -3.64832949       -4.52422917        1.02010732
H             -3.16629028       -2.40696214        1.97434759
H             -2.27776057       -0.15189677        2.08426259
H             -3.18022963        2.65408266       -1.55949269
H             -1.74507690        3.33182647       -0.80182104
H             -2.03364215        0.40876305       -1.64339342
H             -1.32907406        1.68715986       -2.63690169
H             -0.82748415        1.53837318        0.99496132
H              0.46631497        2.05184192       -0.87456051
H              1.90559137       -0.75230061        0.52842634
H              2.10967460        0.94278413        0.06056768
H              2.56663515        0.17541488       -2.30637688
H              2.56705194       -1.49581245       -1.72334779
H              4.33118861        1.73428135       -1.65987355
H              6.63399559        2.03524094       -0.90659065
H              9.93011015        0.94251091        0.52871827
H              8.78677553        1.78443865       -0.71202942
H              7.15008987       -4.02904307        1.30861077
H              5.49261516       -3.40876749        1.49977397
H              6.08280429       -3.91444651       -0.11278191
H              4.34688452       -2.29178480       -0.24738491
H             -0.42982851       -1.44661813       -1.98093819
H             -1.20226285       -1.25382449       -0.39308794
H              0.36783354       -2.05851257       -0.52479307
H             -4.80817310        2.87829866        0.12511222
H             -3.93845544        2.62044940        3.02796361
H             -5.01904734        1.50622189        2.18057318
H             -5.51195829        3.17614867        2.45659855
H             -2.83862898        4.55363653        1.73215346
H             -3.26062924        4.80286103        0.02928826
H             -4.47126650        5.03003656        1.28128737
H             -0.82509250        2.66095344        3.04634277
