 xtb: 6.6.1 (8d0f1dd)
          04062411163D

 72 73  0     0  0            999 V2000
   -2.5114    2.9628    2.5761 N   0  0  0  0  0  0  0  0  0  0  0  0
   -2.2960    2.0788    1.7181 C   0  0  0  0  0  0  0  0  0  0  0  0
   -3.1535    1.8663    0.4990 C   0  0  0  0  0  0  0  0  0  0  0  0
   -3.7855    0.4837    0.5553 C   0  0  0  0  0  0  0  0  0  0  0  0
   -4.4361   -0.0109   -0.6018 C   0  0  0  0  0  0  0  0  0  0  0  0
   -5.0376   -1.2650   -0.6259 C   0  0  0  0  0  0  0  0  0  0  0  0
   -5.6682   -1.7964   -1.7011 O   0  0  0  0  0  0  0  0  0  0  0  0
   -5.8806   -0.9897   -2.8377 C   0  0  0  0  0  0  0  0  0  0  0  0
   -5.0034   -2.0861    0.5084 C   0  0  0  0  0  0  0  0  0  0  0  0
   -5.5517   -3.2997    0.3939 O   0  0  0  0  0  0  0  0  0  0  0  0
   -5.5712   -4.1753    1.4974 C   0  0  0  0  0  0  0  0  0  0  0  0
   -4.4042   -1.6055    1.7831 C   0  0  0  0  0  0  0  0  0  0  0  0
   -3.7730   -0.2607    1.6871 C   0  0  0  0  0  0  0  0  0  0  0  0
   -2.1556    1.9389   -0.7014 C   0  0  0  0  0  0  0  0  0  0  0  0
   -1.2669    0.7432   -0.7896 C   0  0  0  0  0  0  0  0  0  0  0  0
    0.0437    0.7844   -0.4903 C   0  0  0  0  0  0  0  0  0  0  0  0
    0.9050   -0.2657   -0.4906 N   0  0  0  0  0  0  0  0  0  0  0  0
    2.3043   -0.0801   -0.2172 C   0  0  0  0  0  0  0  0  0  0  0  0
    3.1722   -0.0454   -1.4938 C   0  0  0  0  0  0  0  0  0  0  0  0
    4.6164    0.1244   -1.1220 C   0  0  0  0  0  0  0  0  0  0  0  0
    5.2306    1.3659   -1.1799 C   0  0  0  0  0  0  0  0  0  0  0  0
    6.5527    1.5250   -0.7946 C   0  0  0  0  0  0  0  0  0  0  0  0
    7.2890    0.4436   -0.3311 C   0  0  0  0  0  0  0  0  0  0  0  0
    8.5704    0.4813    0.0785 O   0  0  0  0  0  0  0  0  0  0  0  0
    9.2667    1.7059    0.0519 C   0  0  0  0  0  0  0  0  0  0  0  0
    6.6690   -0.8361   -0.2686 C   0  0  0  0  0  0  0  0  0  0  0  0
    7.4553   -1.8305    0.1894 O   0  0  0  0  0  0  0  0  0  0  0  0
    6.9362   -3.1356    0.2783 C   0  0  0  0  0  0  0  0  0  0  0  0
    5.3477   -0.9703   -0.6643 C   0  0  0  0  0  0  0  0  0  0  0  0
    0.4620   -1.5671   -0.9195 C   0  0  0  0  0  0  0  0  0  0  0  0
   -4.2864    2.9162    0.3325 C   0  0  0  0  0  0  0  0  0  0  0  0
   -5.2931    2.8383    1.4785 C   0  0  0  0  0  0  0  0  0  0  0  0
   -3.7676    4.3454    0.1999 C   0  0  0  0  0  0  0  0  0  0  0  0
   -4.4640    0.6001   -1.4866 H   0  0  0  0  0  0  0  0  0  0  0  0
   -6.4315   -0.0788   -2.5858 H   0  0  0  0  0  0  0  0  0  0  0  0
   -6.4792   -1.5958   -3.5149 H   0  0  0  0  0  0  0  0  0  0  0  0
   -4.9387   -0.7268   -3.3295 H   0  0  0  0  0  0  0  0  0  0  0  0
   -6.1260   -3.7516    2.3392 H   0  0  0  0  0  0  0  0  0  0  0  0
   -6.0738   -5.0759    1.1498 H   0  0  0  0  0  0  0  0  0  0  0  0
   -4.5590   -4.4316    1.8256 H   0  0  0  0  0  0  0  0  0  0  0  0
   -5.2020   -1.5560    2.5463 H   0  0  0  0  0  0  0  0  0  0  0  0
   -3.3263    0.1114    2.5957 H   0  0  0  0  0  0  0  0  0  0  0  0
   -2.7319    2.0357   -1.6234 H   0  0  0  0  0  0  0  0  0  0  0  0
   -1.5514    2.8395   -0.5866 H   0  0  0  0  0  0  0  0  0  0  0  0
   -3.6856   -2.3326    2.1814 H   0  0  0  0  0  0  0  0  0  0  0  0
   -1.7396   -0.1794   -1.0867 H   0  0  0  0  0  0  0  0  0  0  0  0
   -1.4369    1.3906    1.7459 H   0  0  0  0  0  0  0  0  0  0  0  0
    0.4920    1.7252   -0.1973 H   0  0  0  0  0  0  0  0  0  0  0  0
    2.6518   -0.8961    0.4252 H   0  0  0  0  0  0  0  0  0  0  0  0
    2.4408    0.8571    0.3264 H   0  0  0  0  0  0  0  0  0  0  0  0
    2.8434    0.7823   -2.1233 H   0  0  0  0  0  0  0  0  0  0  0  0
    3.0342   -0.9754   -2.0476 H   0  0  0  0  0  0  0  0  0  0  0  0
    4.6804    2.2228   -1.5372 H   0  0  0  0  0  0  0  0  0  0  0  0
    7.0042    2.5014   -0.8600 H   0  0  0  0  0  0  0  0  0  0  0  0
    8.7856    2.4543    0.6889 H   0  0  0  0  0  0  0  0  0  0  0  0
    9.3539    2.0944   -0.9672 H   0  0  0  0  0  0  0  0  0  0  0  0
   10.2593    1.4856    0.4404 H   0  0  0  0  0  0  0  0  0  0  0  0
    7.7503   -3.7485    0.6604 H   0  0  0  0  0  0  0  0  0  0  0  0
    6.0909   -3.1846    0.9723 H   0  0  0  0  0  0  0  0  0  0  0  0
    6.6285   -3.5132   -0.7017 H   0  0  0  0  0  0  0  0  0  0  0  0
    4.8723   -1.9382   -0.6297 H   0  0  0  0  0  0  0  0  0  0  0  0
    0.1202   -1.5479   -1.9582 H   0  0  0  0  0  0  0  0  0  0  0  0
   -0.3644   -1.9115   -0.2923 H   0  0  0  0  0  0  0  0  0  0  0  0
    1.2804   -2.2771   -0.8339 H   0  0  0  0  0  0  0  0  0  0  0  0
   -4.8139    2.6633   -0.5950 H   0  0  0  0  0  0  0  0  0  0  0  0
   -4.8132    3.1172    2.4111 H   0  0  0  0  0  0  0  0  0  0  0  0
   -5.7015    1.8351    1.5764 H   0  0  0  0  0  0  0  0  0  0  0  0
   -6.1144    3.5251    1.2912 H   0  0  0  0  0  0  0  0  0  0  0  0
   -3.1981    4.6219    1.0817 H   0  0  0  0  0  0  0  0  0  0  0  0
   -3.1466    4.4700   -0.6832 H   0  0  0  0  0  0  0  0  0  0  0  0
   -4.6119    5.0246    0.1121 H   0  0  0  0  0  0  0  0  0  0  0  0
   -1.8512    3.0437    3.3435 H   0  0  0  0  0  0  0  0  0  0  0  0
  1  2  2  0  0  0  0
  2  3  1  0  0  0  0
  3  4  1  0  0  0  0
  4  5  4  0  0  0  0
  5  6  4  0  0  0  0
  6  7  1  0  0  0  0
  7  8  1  0  0  0  0
  6  9  4  0  0  0  0
  9 10  1  0  0  0  0
 10 11  1  0  0  0  0
  9 12  1  0  0  0  0
  4 13  2  0  0  0  0
 12 13  1  0  0  0  0
  3 14  1  0  0  0  0
 14 15  1  0  0  0  0
 15 16  2  0  0  0  0
 16 17  4  0  0  0  0
 17 18  1  0  0  0  0
 18 19  1  0  0  0  0
 19 20  1  0  0  0  0
 20 21  4  0  0  0  0
 21 22  4  0  0  0  0
 22 23  4  0  0  0  0
 23 24  1  0  0  0  0
 24 25  1  0  0  0  0
 23 26  4  0  0  0  0
 26 27  1  0  0  0  0
 27 28  1  0  0  0  0
 20 29  4  0  0  0  0
 26 29  4  0  0  0  0
 17 30  1  0  0  0  0
  3 31  1  0  0  0  0
 31 32  1  0  0  0  0
 31 33  1  0  0  0  0
  5 34  1  0  0  0  0
  8 35  1  0  0  0  0
  8 36  1  0  0  0  0
  8 37  1  0  0  0  0
 11 38  1  0  0  0  0
 11 39  1  0  0  0  0
 11 40  1  0  0  0  0
 12 41  1  0  0  0  0
 13 42  1  0  0  0  0
 14 43  1  0  0  0  0
 14 44  1  0  0  0  0
 12 45  1  0  0  0  0
 15 46  1  0  0  0  0
  2 47  1  0  0  0  0
 16 48  1  0  0  0  0
 18 49  1  0  0  0  0
 18 50  1  0  0  0  0
 19 51  1  0  0  0  0
 19 52  1  0  0  0  0
 21 53  1  0  0  0  0
 22 54  1  0  0  0  0
 25 55  1  0  0  0  0
 25 56  1  0  0  0  0
 25 57  1  0  0  0  0
 28 58  1  0  0  0  0
 28 59  1  0  0  0  0
 28 60  1  0  0  0  0
 29 61  1  0  0  0  0
 30 62  1  0  0  0  0
 30 63  1  0  0  0  0
 30 64  1  0  0  0  0
 31 65  1  0  0  0  0
 32 66  1  0  0  0  0
 32 67  1  0  0  0  0
 32 68  1  0  0  0  0
 33 69  1  0  0  0  0
 33 70  1  0  0  0  0
 33 71  1  0  0  0  0
  1 72  1  0  0  0  0
M  CHG  1   1   1
M  END
