 xtb: 6.6.1 (8d0f1dd)
          04062411163D

 72 73  0     0  0            999 V2000
   -1.9605    2.9220    2.2187 N   0  0  0  0  0  0  0  0  0  0  0  0
   -1.9078    2.1867    1.2084 C   0  0  0  0  0  0  0  0  0  0  0  0
   -3.0477    1.9595    0.2546 C   0  0  0  0  0  0  0  0  0  0  0  0
   -3.4845    0.5042    0.3229 C   0  0  0  0  0  0  0  0  0  0  0  0
   -4.3913    0.0071   -0.6161 C   0  0  0  0  0  0  0  0  0  0  0  0
   -4.8402   -1.3012   -0.5667 C   0  0  0  0  0  0  0  0  0  0  0  0
   -5.7250   -1.8556   -1.4256 O   0  0  0  0  0  0  0  0  0  0  0  0
   -6.3452   -1.0410   -2.3916 C   0  0  0  0  0  0  0  0  0  0  0  0
   -4.3616   -2.1672    0.4507 C   0  0  0  0  0  0  0  0  0  0  0  0
   -4.8475   -3.4279    0.4186 O   0  0  0  0  0  0  0  0  0  0  0  0
   -4.4923   -4.3201    1.4478 C   0  0  0  0  0  0  0  0  0  0  0  0
   -3.4625   -1.6697    1.3786 C   0  0  0  0  0  0  0  0  0  0  0  0
   -3.0335   -0.3488    1.3164 C   0  0  0  0  0  0  0  0  0  0  0  0
   -2.4889    2.2855   -1.1559 C   0  0  0  0  0  0  0  0  0  0  0  0
   -1.5473    1.2159   -1.7414 C   0  0  0  0  0  0  0  0  0  0  0  0
   -0.2227    1.1661   -1.0830 C   0  0  0  0  0  0  0  0  0  0  0  0
    0.4102    0.0501   -0.7040 N   0  0  0  0  0  0  0  0  0  0  0  0
    1.7691    0.1027   -0.2250 C   0  0  0  0  0  0  0  0  0  0  0  0
    2.7730   -0.4201   -1.2730 C   0  0  0  0  0  0  0  0  0  0  0  0
    4.1854   -0.2365   -0.7958 C   0  0  0  0  0  0  0  0  0  0  0  0
    4.9123    0.8978   -1.1400 C   0  0  0  0  0  0  0  0  0  0  0  0
    6.2157    1.0889   -0.7125 C   0  0  0  0  0  0  0  0  0  0  0  0
    6.8407    0.1348    0.0895 C   0  0  0  0  0  0  0  0  0  0  0  0
    8.0989    0.1893    0.5679 O   0  0  0  0  0  0  0  0  0  0  0  0
    8.9237    1.2760    0.2002 C   0  0  0  0  0  0  0  0  0  0  0  0
    6.0931   -0.9979    0.4448 C   0  0  0  0  0  0  0  0  0  0  0  0
    6.7686   -1.9768    1.2382 O   0  0  0  0  0  0  0  0  0  0  0  0
    6.9952   -3.2585    0.4807 C   0  0  0  0  0  0  0  0  0  0  0  0
    4.7935   -1.1903    0.0132 C   0  0  0  0  0  0  0  0  0  0  0  0
   -0.2133   -1.2481   -0.7977 C   0  0  0  0  0  0  0  0  0  0  0  0
   -4.2894    2.8516    0.5499 C   0  0  0  0  0  0  0  0  0  0  0  0
   -4.9146    2.5087    1.9004 C   0  0  0  0  0  0  0  0  0  0  0  0
   -3.9854    4.3461    0.4870 C   0  0  0  0  0  0  0  0  0  0  0  0
   -4.7630    0.6608   -1.3875 H   0  0  0  0  0  0  0  0  0  0  0  0
   -6.8857   -0.2098   -1.9283 H   0  0  0  0  0  0  0  0  0  0  0  0
   -7.0531   -1.6874   -2.9068 H   0  0  0  0  0  0  0  0  0  0  0  0
   -5.6224   -0.6502   -3.1154 H   0  0  0  0  0  0  0  0  0  0  0  0
   -4.7876   -3.9383    2.4298 H   0  0  0  0  0  0  0  0  0  0  0  0
   -5.0374   -5.2385    1.2394 H   0  0  0  0  0  0  0  0  0  0  0  0
   -3.4174   -4.5296    1.4456 H   0  0  0  0  0  0  0  0  0  0  0  0
   -3.0958   -2.2987    2.1736 H   0  0  0  0  0  0  0  0  0  0  0  0
   -2.3594    0.0113    2.0782 H   0  0  0  0  0  0  0  0  0  0  0  0
   -3.3260    2.4072   -1.8429 H   0  0  0  0  0  0  0  0  0  0  0  0
   -1.9593    3.2380   -1.1104 H   0  0  0  0  0  0  0  0  0  0  0  0
   -2.0410    0.2463   -1.7197 H   0  0  0  0  0  0  0  0  0  0  0  0
   -1.3874    1.4860   -2.7939 H   0  0  0  0  0  0  0  0  0  0  0  0
   -0.9929    1.6583    0.8794 H   0  0  0  0  0  0  0  0  0  0  0  0
    0.3434    2.0831   -1.0252 H   0  0  0  0  0  0  0  0  0  0  0  0
    1.8509   -0.4956    0.6880 H   0  0  0  0  0  0  0  0  0  0  0  0
    2.0223    1.1362    0.0209 H   0  0  0  0  0  0  0  0  0  0  0  0
    2.6248    0.1334   -2.2012 H   0  0  0  0  0  0  0  0  0  0  0  0
    2.5811   -1.4757   -1.4682 H   0  0  0  0  0  0  0  0  0  0  0  0
    4.4599    1.6468   -1.7718 H   0  0  0  0  0  0  0  0  0  0  0  0
    6.7456    1.9770   -1.0136 H   0  0  0  0  0  0  0  0  0  0  0  0
    8.5240    2.2225    0.5736 H   0  0  0  0  0  0  0  0  0  0  0  0
    9.0506    1.3288   -0.8840 H   0  0  0  0  0  0  0  0  0  0  0  0
    9.8861    1.0797    0.6682 H   0  0  0  0  0  0  0  0  0  0  0  0
    7.4958   -3.9294    1.1674 H   0  0  0  0  0  0  0  0  0  0  0  0
    6.2208   -2.2346    2.0000 H   0  0  0  0  0  0  0  0  0  0  0  0
    7.5810   -3.0223   -0.3982 H   0  0  0  0  0  0  0  0  0  0  0  0
    4.2759   -2.0976    0.2863 H   0  0  0  0  0  0  0  0  0  0  0  0
   -0.3773   -1.5336   -1.8392 H   0  0  0  0  0  0  0  0  0  0  0  0
   -1.1748   -1.2494   -0.2776 H   0  0  0  0  0  0  0  0  0  0  0  0
    0.4309   -1.9900   -0.3332 H   0  0  0  0  0  0  0  0  0  0  0  0
   -5.0269    2.6239   -0.2284 H   0  0  0  0  0  0  0  0  0  0  0  0
   -4.2198    2.7402    2.7010 H   0  0  0  0  0  0  0  0  0  0  0  0
   -5.1788    1.4554    1.9544 H   0  0  0  0  0  0  0  0  0  0  0  0
   -5.8179    3.0959    2.0434 H   0  0  0  0  0  0  0  0  0  0  0  0
   -3.2251    4.6065    1.2165 H   0  0  0  0  0  0  0  0  0  0  0  0
   -3.6545    4.6515   -0.5022 H   0  0  0  0  0  0  0  0  0  0  0  0
   -4.8882    4.9035    0.7228 H   0  0  0  0  0  0  0  0  0  0  0  0
   -1.1131    3.0196    2.7701 H   0  0  0  0  0  0  0  0  0  0  0  0
  1  2  2  0  0  0  0
  2  3  1  0  0  0  0
  3  4  1  0  0  0  0
  4  5  4  0  0  0  0
  5  6  4  0  0  0  0
  6  7  1  0  0  0  0
  7  8  1  0  0  0  0
  6  9  4  0  0  0  0
  9 10  1  0  0  0  0
 10 11  1  0  0  0  0
  9 12  4  0  0  0  0
  4 13  4  0  0  0  0
 12 13  4  0  0  0  0
  3 14  1  0  0  0  0
 14 15  1  0  0  0  0
 15 16  1  0  0  0  0
 16 17  4  0  0  0  0
 17 18  1  0  0  0  0
 18 19  1  0  0  0  0
 19 20  1  0  0  0  0
 20 21  4  0  0  0  0
 21 22  4  0  0  0  0
 22 23  4  0  0  0  0
 23 24  1  0  0  0  0
 24 25  1  0  0  0  0
 23 26  4  0  0  0  0
 26 27  1  0  0  0  0
 27 28  1  0  0  0  0
 20 29  4  0  0  0  0
 26 29  4  0  0  0  0
 17 30  1  0  0  0  0
  3 31  1  0  0  0  0
 31 32  1  0  0  0  0
 31 33  1  0  0  0  0
  5 34  1  0  0  0  0
  8 35  1  0  0  0  0
  8 36  1  0  0  0  0
  8 37  1  0  0  0  0
 11 38  1  0  0  0  0
 11 39  1  0  0  0  0
 11 40  1  0  0  0  0
 12 41  1  0  0  0  0
 13 42  1  0  0  0  0
 14 43  1  0  0  0  0
 14 44  1  0  0  0  0
 15 45  1  0  0  0  0
 15 46  1  0  0  0  0
  2 47  1  0  0  0  0
 16 48  1  0  0  0  0
 18 49  1  0  0  0  0
 18 50  1  0  0  0  0
 19 51  1  0  0  0  0
 19 52  1  0  0  0  0
 21 53  1  0  0  0  0
 22 54  1  0  0  0  0
 25 55  1  0  0  0  0
 25 56  1  0  0  0  0
 25 57  1  0  0  0  0
 28 58  1  0  0  0  0
 27 59  1  0  0  0  0
 28 60  1  0  0  0  0
 29 61  1  0  0  0  0
 30 62  1  0  0  0  0
 30 63  1  0  0  0  0
 30 64  1  0  0  0  0
 31 65  1  0  0  0  0
 32 66  1  0  0  0  0
 32 67  1  0  0  0  0
 32 68  1  0  0  0  0
 33 69  1  0  0  0  0
 33 70  1  0  0  0  0
 33 71  1  0  0  0  0
  1 72  1  0  0  0  0
M  CHG  1   1   1
M  END
