 xtb: 6.6.1 (8d0f1dd)
          06052419593D

 25 25  0     0  0            999 V2000
    3.0645    1.0724   -0.1842 C   0  0  0  0  0  0  0  0  0  0  0  0
    2.2042    0.0634   -0.1260 N   0  0  0  0  0  0  0  0  0  0  0  0
    2.4723   -1.2623   -0.1283 C   0  0  0  0  0  0  0  0  0  0  0  0
    1.3109   -1.9704   -0.0783 N   0  0  0  0  0  0  0  0  0  0  0  0
    0.2769   -1.0879   -0.0436 C   0  0  0  0  0  0  0  0  0  0  0  0
    0.8171    0.1868   -0.0688 C   0  0  0  0  0  0  0  0  0  0  0  0
   -0.0100    1.3713   -0.0594 C   0  0  0  0  0  0  0  0  0  0  0  0
    0.3870    2.5115   -0.0824 O   0  0  0  0  0  0  0  0  0  0  0  0
   -1.3661    1.0392   -0.0194 N   0  0  0  0  0  0  0  0  0  0  0  0
   -2.3232    2.1360   -0.0174 C   0  0  0  0  0  0  0  0  0  0  0  0
   -1.9300   -0.2228    0.0047 C   0  0  0  0  0  0  0  0  0  0  0  0
   -3.1158   -0.3969    0.0309 O   0  0  0  0  0  0  0  0  0  0  0  0
   -1.0442   -1.3239   -0.0028 N   0  0  0  0  0  0  0  0  0  0  0  0
   -1.5932   -2.6644    0.0215 C   0  0  0  0  0  0  0  0  0  0  0  0
    5.4434    1.8637    1.4149 H   0  0  0  0  0  0  0  0  0  0  0  0
    4.1193    0.8709   -0.2530 H   0  0  0  0  0  0  0  0  0  0  0  0
    2.6792    2.0761   -0.1736 H   0  0  0  0  0  0  0  0  0  0  0  0
    3.4488   -1.6976   -0.1701 H   0  0  0  0  0  0  0  0  0  0  0  0
   -1.7670    3.0704   -0.0001 H   0  0  0  0  0  0  0  0  0  0  0  0
   -2.9482    2.0853   -0.9096 H   0  0  0  0  0  0  0  0  0  0  0  0
   -2.9697    2.0613    0.8573 H   0  0  0  0  0  0  0  0  0  0  0  0
   -1.2760   -3.1927    0.9219 H   0  0  0  0  0  0  0  0  0  0  0  0
   -1.2888   -3.2196   -0.8664 H   0  0  0  0  0  0  0  0  0  0  0  0
   -2.6795   -2.5739    0.0290 H   0  0  0  0  0  0  0  0  0  0  0  0
    1.2486   -2.9777   -0.0656 H   0  0  0  0  0  0  0  0  0  0  0  0
  1  2  4  0  0  0  0
  2  3  4  0  0  0  0
  3  4  4  0  0  0  0
  4  5  1  0  0  0  0
  2  6  1  0  0  0  0
  5  6  4  0  0  0  0
  6  7  1  0  0  0  0
  7  8  2  0  0  0  0
  7  9  1  0  0  0  0
  9 10  1  0  0  0  0
  9 11  1  0  0  0  0
 11 12  2  0  0  0  0
  5 13  4  0  0  0  0
 11 13  1  0  0  0  0
 13 14  1  0  0  0  0
  1 16  1  0  0  0  0
  1 17  1  0  0  0  0
  3 18  1  0  0  0  0
 10 19  1  0  0  0  0
 10 20  1  0  0  0  0
 10 21  1  0  0  0  0
 14 22  1  0  0  0  0
 14 23  1  0  0  0  0
 14 24  1  0  0  0  0
  4 25  1  0  0  0  0
M  CHG  1   1   1
M  END
