          71
 
N             -1.44823969        2.40986022        2.62238028
C             -1.33853672        1.73693153        1.57651729
C             -2.37271895        1.73491611        0.47195716
C             -3.09799684        0.39800284        0.47355946
C             -4.09072697        0.15397715       -0.47920942
C             -4.78947811       -1.04260412       -0.51104065
O             -5.75008720       -1.35876594       -1.39894649
C             -6.11835339       -0.42531970       -2.38672888
C             -4.50022545       -2.04976521        0.45377318
O             -5.21914571       -3.17907770        0.34134142
C             -5.02985789       -4.21851022        1.27410764
C             -3.52899359       -1.79088003        1.41042670
C             -2.84181351       -0.58559773        1.42038012
C             -1.61077060        1.97495475       -0.83598575
C             -1.68035373        1.13373493       -2.07692756
C             -0.39152475        1.18346891       -1.31807103
N              0.14317534        0.06672097       -0.62156344
C              1.52795127        0.15134133       -0.27115697
C              2.51975220        0.06134488       -1.44980083
C              3.93451555        0.07942307       -0.95693003
C              4.65750102        1.26509123       -0.90631441
C              5.96843242        1.28095870       -0.46073342
C              6.58816513        0.10881873       -0.04349294
O              7.85373008       -0.00187256        0.38692078
C              8.68640908        1.13557613        0.40295248
C              5.84596085       -1.10928737       -0.06446665
O              6.51614665       -2.19003850        0.37027287
C              5.87722745       -3.44494443        0.38936254
C              4.53645091       -1.09902425       -0.52163238
C             -0.38051411       -1.25194713       -0.88282080
C             -3.43801439        2.86774174        0.65773105
C             -4.35636178        2.57620126        1.84288580
C             -2.84538529        4.26381741        0.83297451
H             -4.33044599        0.92227747       -1.19569775
H             -6.53386139        0.48431552       -1.94356252
H             -6.88445037       -0.91780705       -2.98199860
H             -5.27229384       -0.16602908       -3.03045396
H             -5.25699311       -3.88949753        2.29252718
H             -5.72813650       -5.00107663        0.98338556
H             -4.00900470       -4.61043147        1.23528185
H             -3.30179133       -2.52709030        2.16399016
H             -2.10647506       -0.42122482        2.19131694
H             -1.49965822        3.03400297       -1.02576960
H             -2.24314804        0.21537580       -2.05750758
H             -1.72555655        1.64092471       -3.03016420
H             -0.47796561        1.09616864        1.34940573
H              0.38565449        1.81940356       -1.72973154
H              1.75522834       -0.63894911        0.44950935
H              1.68195373        1.14899700        0.25658902
H              2.35737354        0.89375585       -2.13528434
H              2.32590562       -0.87089912       -1.98663890
H              4.19903335        2.18771079       -1.22665912
H              6.50707788        2.21430433       -0.44424367
H              8.30722744        1.89944261        1.08796614
H              8.79684335        1.56338097       -0.59772030
H              9.65428449        0.78319894        0.75447396
H              6.61656959       -4.14284935        0.77776234
H              5.00359177       -3.43886768        1.04856455
H              5.57705346       -3.75739581       -0.61545281
H              3.97322057       -2.01870672       -0.55840258
H             -0.20584618       -1.56331427       -1.92010007
H             -1.45023424       -1.28286785       -0.68216515
H              0.10686062       -1.96300974       -0.21890192
H             -4.04152454        2.87333069       -0.25714020
H             -3.77716074        2.56405514        2.76164510
H             -4.86576242        1.62212995        1.73527854
H             -5.10837222        3.35721839        1.92125667
H             -2.24080500        4.30475760        1.73448452
H             -2.23629974        4.57444367       -0.01229348
H             -3.65624592        4.98090277        0.93284256
H             -0.69710365        2.37166585        3.30281712
