 xtb: 6.6.1 (8d0f1dd)
          06052419593D

 25 26  0     0  0            999 V2000
    3.3309    0.8973    0.0860 C   0  0  0  0  0  0  0  0  0  0  0  0
    2.3898   -0.0445    0.0171 N   0  0  0  0  0  0  0  0  0  0  0  0
    2.5874   -1.3756   -0.1093 C   0  0  0  0  0  0  0  0  0  0  0  0
    1.3845   -2.0350   -0.1269 N   0  0  0  0  0  0  0  0  0  0  0  0
    0.4006   -1.1314   -0.0071 C   0  0  0  0  0  0  0  0  0  0  0  0
    0.9983    0.1457    0.0543 C   0  0  0  0  0  0  0  0  0  0  0  0
    0.1839    1.2762    0.0167 C   0  0  0  0  0  0  0  0  0  0  0  0
    0.5832    2.5400   -0.0738 O   0  0  0  0  0  0  0  0  0  0  0  0
   -1.1625    1.0627    0.0469 N   0  0  0  0  0  0  0  0  0  0  0  0
   -2.0831    2.1905    0.0273 C   0  0  0  0  0  0  0  0  0  0  0  0
   -1.7832   -0.1915    0.0691 C   0  0  0  0  0  0  0  0  0  0  0  0
   -2.9752   -0.2964    0.1096 O   0  0  0  0  0  0  0  0  0  0  0  0
   -0.9417   -1.3065    0.0242 N   0  0  0  0  0  0  0  0  0  0  0  0
   -1.5336   -2.6305    0.0050 C   0  0  0  0  0  0  0  0  0  0  0  0
    3.1049    1.8738    0.4652 H   0  0  0  0  0  0  0  0  0  0  0  0
    4.3600    0.5948    0.0044 H   0  0  0  0  0  0  0  0  0  0  0  0
    1.5323    2.6095   -0.2671 H   0  0  0  0  0  0  0  0  0  0  0  0
    3.5413   -1.8493   -0.1828 H   0  0  0  0  0  0  0  0  0  0  0  0
   -1.5191    3.1169    0.0397 H   0  0  0  0  0  0  0  0  0  0  0  0
   -2.7023    2.1393   -0.8680 H   0  0  0  0  0  0  0  0  0  0  0  0
   -2.7383    2.1362    0.8960 H   0  0  0  0  0  0  0  0  0  0  0  0
   -1.1971   -3.2087    0.8658 H   0  0  0  0  0  0  0  0  0  0  0  0
   -1.2772   -3.1502   -0.9186 H   0  0  0  0  0  0  0  0  0  0  0  0
   -2.6144   -2.5090    0.0570 H   0  0  0  0  0  0  0  0  0  0  0  0
    1.2909   -3.0360   -0.1994 H   0  0  0  0  0  0  0  0  0  0  0  0
  1  2  4  0  0  0  0
  2  3  4  0  0  0  0
  3  4  1  0  0  0  0
  4  5  4  0  0  0  0
  2  6  1  0  0  0  0
  5  6  4  0  0  0  0
  6  7  4  0  0  0  0
  7  8  1  0  0  0  0
  7  9  4  0  0  0  0
  9 10  1  0  0  0  0
  9 11  1  0  0  0  0
 11 12  2  0  0  0  0
  5 13  1  0  0  0  0
 11 13  1  0  0  0  0
 13 14  1  0  0  0  0
  1 15  1  0  0  0  0
  1 16  1  0  0  0  0
  8 17  1  0  0  0  0
  3 18  1  0  0  0  0
 10 19  1  0  0  0  0
 10 20  1  0  0  0  0
 10 21  1  0  0  0  0
 14 22  1  0  0  0  0
 14 23  1  0  0  0  0
 14 24  1  0  0  0  0
  4 25  1  0  0  0  0
M  CHG  1   1   1
M  END
