 xtb: 6.6.1 (8d0f1dd)
          06052419573D

 25 24  0     0  0            999 V2000
    3.1366    0.6686   -0.3083 C   0  0  0  0  0  0  0  0  0  0  0  0
    2.1619   -0.3774   -0.1636 N   0  0  0  0  0  0  0  0  0  0  0  0
    1.9728   -1.1128    0.9328 C   0  0  0  0  0  0  0  0  0  0  0  0
    0.9785   -1.9738    0.7100 N   0  0  0  0  0  0  0  0  0  0  0  0
    0.5262   -1.7444   -0.5780 C   0  0  0  0  0  0  0  0  0  0  0  0
    1.2835   -0.7275   -1.1467 C   0  0  0  0  0  0  0  0  0  0  0  0
    0.9904    3.2853   -0.5704 C   0  0  0  0  0  0  0  0  0  0  0  0
    0.9784    4.3677   -0.8879 O   0  0  0  0  0  0  0  0  0  0  0  0
   -2.3102    1.1544    0.5018 N   0  0  0  0  0  0  0  0  0  0  0  0
   -2.6447    2.5214    0.5064 C   0  0  0  0  0  0  0  0  0  0  0  0
   -1.8874    0.1798    1.0129 C   0  0  0  0  0  0  0  0  0  0  0  0
   -1.4821   -0.8749    1.3043 O   0  0  0  0  0  0  0  0  0  0  0  0
   -0.5043   -2.4114   -1.1728 N   0  0  0  0  0  0  0  0  0  0  0  0
   -1.2538   -3.3645   -0.6842 C   0  0  0  0  0  0  0  0  0  0  0  0
    3.8258    0.6609    0.5330 H   0  0  0  0  0  0  0  0  0  0  0  0
    3.6866    0.5251   -1.2374 H   0  0  0  0  0  0  0  0  0  0  0  0
    2.6249    1.6338   -0.3575 H   0  0  0  0  0  0  0  0  0  0  0  0
    2.5309   -1.0377    1.8451 H   0  0  0  0  0  0  0  0  0  0  0  0
   -1.7567    3.1157    0.2823 H   0  0  0  0  0  0  0  0  0  0  0  0
   -3.3894    2.6837   -0.2719 H   0  0  0  0  0  0  0  0  0  0  0  0
   -3.0557    2.8260    1.4698 H   0  0  0  0  0  0  0  0  0  0  0  0
   -1.1067   -3.7290    0.3161 H   0  0  0  0  0  0  0  0  0  0  0  0
   -0.6808   -2.0781   -2.1181 H   0  0  0  0  0  0  0  0  0  0  0  0
   -2.0419   -3.7795   -1.2844 H   0  0  0  0  0  0  0  0  0  0  0  0
    0.5777   -2.5933    1.3978 H   0  0  0  0  0  0  0  0  0  0  0  0
  1  2  1  0  0  0  0
  2  3  4  0  0  0  0
  3  4  4  0  0  0  0
  4  5  1  0  0  0  0
  2  6  4  0  0  0  0
  5  6  4  0  0  0  0
  7  8  3  0  0  0  0
  9 10  1  0  0  0  0
  9 11  2  0  0  0  0
  9 12  1  0  0  0  0
 11 12  2  0  0  0  0
  5 13  1  0  0  0  0
 13 14  2  0  0  0  0
  1 15  1  0  0  0  0
  1 16  1  0  0  0  0
  1 17  1  0  0  0  0
  3 18  1  0  0  0  0
 10 19  1  0  0  0  0
 10 20  1  0  0  0  0
 10 21  1  0  0  0  0
 14 22  1  0  0  0  0
 13 23  1  0  0  0  0
 14 24  1  0  0  0  0
  4 25  1  0  0  0  0
M  CHG  1   1   1
M  END
