          18
 
C              3.05408446        0.59119405        1.00466463
N              2.29806840       -0.36607717        0.22627790
C              2.88844124       -1.19754738       -0.69783922
N              2.34379103       -1.97775234       -1.51222879
C              0.16285357       -1.42948644        0.42383406
C              0.87592550       -0.27883457        0.25740726
C              0.33256381        0.93991721       -0.01949911
O              0.46923451        2.07865596       -0.18154953
N             -0.36920894       -2.42854651        0.70065945
C             -0.95867578       -3.67923140        0.67507681
H              2.63457647        0.66522275        2.00838633
H              4.08355879        0.24906119        1.08244254
H              3.04770085        1.58295348        0.54355855
H              3.97068666       -1.18062889       -0.66334224
H             -0.92716018       -4.10605025        1.67907452
H             -0.43319286       -4.33278424       -0.02517377
H             -2.00011105       -3.57741321        0.36373332
H              1.32944178       -1.97019799       -1.57207547
