 xtb: 6.6.1 (8d0f1dd)
          06052419583D

 25 25  0     0  0            999 V2000
    4.3867    0.5615   -0.0170 C   0  0  0  0  0  0  0  0  0  0  0  0
    4.0464   -0.6361   -0.2614 N   0  0  0  0  0  0  0  0  0  0  0  0
    3.2193   -1.5889   -0.0150 C   0  0  0  0  0  0  0  0  0  0  0  0
    1.8738   -1.4420    0.0718 N   0  0  0  0  0  0  0  0  0  0  0  0
    1.2223   -0.2431    0.0519 C   0  0  0  0  0  0  0  0  0  0  0  0
   -0.1233   -0.0196    0.0248 C   0  0  0  0  0  0  0  0  0  0  0  0
   -0.6465    1.3621    0.0167 C   0  0  0  0  0  0  0  0  0  0  0  0
   -0.0231    2.3982    0.0257 O   0  0  0  0  0  0  0  0  0  0  0  0
   -2.0201    1.2270   -0.0043 N   0  0  0  0  0  0  0  0  0  0  0  0
   -2.9571    2.3184   -0.0176 C   0  0  0  0  0  0  0  0  0  0  0  0
   -2.3906   -0.1059   -0.0104 C   0  0  0  0  0  0  0  0  0  0  0  0
   -3.5031   -0.5553   -0.0293 O   0  0  0  0  0  0  0  0  0  0  0  0
   -1.2106   -0.8556    0.0089 N   0  0  0  0  0  0  0  0  0  0  0  0
   -1.2407   -2.2922   -0.0032 C   0  0  0  0  0  0  0  0  0  0  0  0
    4.2058    1.0429    0.9402 H   0  0  0  0  0  0  0  0  0  0  0  0
    4.9612    1.0908   -0.7568 H   0  0  0  0  0  0  0  0  0  0  0  0
    1.8428    0.6448    0.0383 H   0  0  0  0  0  0  0  0  0  0  0  0
    3.6020   -2.6027   -0.0167 H   0  0  0  0  0  0  0  0  0  0  0  0
   -2.3902    3.2486   -0.0116 H   0  0  0  0  0  0  0  0  0  0  0  0
   -3.5825    2.2651   -0.9107 H   0  0  0  0  0  0  0  0  0  0  0  0
   -3.6043    2.2677    0.8601 H   0  0  0  0  0  0  0  0  0  0  0  0
   -0.7807   -2.7019    0.8990 H   0  0  0  0  0  0  0  0  0  0  0  0
   -0.7531   -2.6867   -0.8982 H   0  0  0  0  0  0  0  0  0  0  0  0
   -2.2902   -2.5910   -0.0220 H   0  0  0  0  0  0  0  0  0  0  0  0
    1.3163   -2.2879    0.0680 H   0  0  0  0  0  0  0  0  0  0  0  0
  1  2  2  0  0  0  0
  2  3  4  0  0  0  0
  3  4  4  0  0  0  0
  4  5  1  0  0  0  0
  5  6  4  0  0  0  0
  6  7  1  0  0  0  0
  7  8  2  0  0  0  0
  7  9  1  0  0  0  0
  9 10  1  0  0  0  0
  9 11  1  0  0  0  0
 11 12  2  0  0  0  0
  6 13  1  0  0  0  0
 11 13  1  0  0  0  0
 13 14  1  0  0  0  0
  1 15  1  0  0  0  0
  1 16  1  0  0  0  0
  5 17  1  0  0  0  0
  3 18  1  0  0  0  0
 10 19  1  0  0  0  0
 10 20  1  0  0  0  0
 10 21  1  0  0  0  0
 14 22  1  0  0  0  0
 14 23  1  0  0  0  0
 14 24  1  0  0  0  0
  4 25  1  0  0  0  0
M  CHG  1   1   1
M  END
