 xtb: 6.6.1 (8d0f1dd)
          04062411163D

 72 72  0     0  0            999 V2000
   -2.0205    2.9776    2.1622 N   0  0  0  0  0  0  0  0  0  0  0  0
   -1.9463    2.2378    1.1593 C   0  0  0  0  0  0  0  0  0  0  0  0
   -3.0794    1.9700    0.2073 C   0  0  0  0  0  0  0  0  0  0  0  0
   -3.5012    0.5125    0.3134 C   0  0  0  0  0  0  0  0  0  0  0  0
   -4.4008   -0.0167   -0.6143 C   0  0  0  0  0  0  0  0  0  0  0  0
   -4.8355   -1.3292   -0.5344 C   0  0  0  0  0  0  0  0  0  0  0  0
   -5.7102   -1.9129   -1.3787 O   0  0  0  0  0  0  0  0  0  0  0  0
   -6.3372   -1.1336   -2.3701 C   0  0  0  0  0  0  0  0  0  0  0  0
   -4.3473   -2.1662    0.5058 C   0  0  0  0  0  0  0  0  0  0  0  0
   -4.8179   -3.4289    0.5023 O   0  0  0  0  0  0  0  0  0  0  0  0
   -4.4516   -4.3004    1.5466 C   0  0  0  0  0  0  0  0  0  0  0  0
   -3.4546   -1.6348    1.4228 C   0  0  0  0  0  0  0  0  0  0  0  0
   -3.0408   -0.3117    1.3286 C   0  0  0  0  0  0  0  0  0  0  0  0
   -2.5223    2.2618   -1.2111 C   0  0  0  0  0  0  0  0  0  0  0  0
   -1.5600    1.1898   -1.7560 C   0  0  0  0  0  0  0  0  0  0  0  0
   -0.2339    1.1977   -1.1001 C   0  0  0  0  0  0  0  0  0  0  0  0
    0.4271    0.1280   -0.6850 N   0  0  0  0  0  0  0  0  0  0  0  0
    1.7777    0.2411   -0.1846 C   0  0  0  0  0  0  0  0  0  0  0  0
    2.8140   -0.3399   -1.1639 C   0  0  0  0  0  0  0  0  0  0  0  0
    4.1983   -0.1320   -0.6143 C   0  0  0  0  0  0  0  0  0  0  0  0
    5.0483    0.8222   -1.1542 C   0  0  0  0  0  0  0  0  0  0  0  0
    6.3142    1.0320   -0.6381 C   0  0  0  0  0  0  0  0  0  0  0  0
    6.7536    0.2852    0.4550 C   0  0  0  0  0  0  0  0  0  0  0  0
    7.9570    0.4087    1.0457 O   0  0  0  0  0  0  0  0  0  0  0  0
    8.8875    1.3360    0.5327 C   0  0  0  0  0  0  0  0  0  0  0  0
    5.8947   -0.6739    1.0082 C   0  0  0  0  0  0  0  0  0  0  0  0
    6.8026   -2.8275   -0.7218 O   0  0  0  0  0  0  0  0  0  0  0  0
    7.3067   -3.8322   -0.3078 C   0  0  0  0  0  0  0  0  0  0  0  0
    4.6431   -0.8782    0.4756 C   0  0  0  0  0  0  0  0  0  0  0  0
   -0.1534   -1.1934   -0.7173 C   0  0  0  0  0  0  0  0  0  0  0  0
   -4.3307    2.8582    0.4776 C   0  0  0  0  0  0  0  0  0  0  0  0
   -4.9582    2.5421    1.8333 C   0  0  0  0  0  0  0  0  0  0  0  0
   -4.0395    4.3530    0.3804 C   0  0  0  0  0  0  0  0  0  0  0  0
   -4.7792    0.6133   -1.4020 H   0  0  0  0  0  0  0  0  0  0  0  0
   -6.8854   -0.2939   -1.9326 H   0  0  0  0  0  0  0  0  0  0  0  0
   -7.0386   -1.8019   -2.8658 H   0  0  0  0  0  0  0  0  0  0  0  0
   -5.6166   -0.7593   -3.1046 H   0  0  0  0  0  0  0  0  0  0  0  0
   -4.7525   -3.9060    2.5216 H   0  0  0  0  0  0  0  0  0  0  0  0
   -4.9853   -5.2286    1.3526 H   0  0  0  0  0  0  0  0  0  0  0  0
   -3.3745   -4.4959    1.5475 H   0  0  0  0  0  0  0  0  0  0  0  0
   -3.0817   -2.2405    2.2328 H   0  0  0  0  0  0  0  0  0  0  0  0
   -2.3714    0.0746    2.0817 H   0  0  0  0  0  0  0  0  0  0  0  0
   -3.3587    2.3456   -1.9040 H   0  0  0  0  0  0  0  0  0  0  0  0
   -2.0105    3.2247   -1.1956 H   0  0  0  0  0  0  0  0  0  0  0  0
   -2.0321    0.2106   -1.6999 H   0  0  0  0  0  0  0  0  0  0  0  0
   -1.3995    1.4240   -2.8163 H   0  0  0  0  0  0  0  0  0  0  0  0
   -1.0161    1.7316    0.8367 H   0  0  0  0  0  0  0  0  0  0  0  0
    0.2988    2.1373   -1.0703 H   0  0  0  0  0  0  0  0  0  0  0  0
    1.8484   -0.2865    0.7711 H   0  0  0  0  0  0  0  0  0  0  0  0
    2.0098    1.2937   -0.0107 H   0  0  0  0  0  0  0  0  0  0  0  0
    2.7145    0.1605   -2.1283 H   0  0  0  0  0  0  0  0  0  0  0  0
    2.6303   -1.4058   -1.3083 H   0  0  0  0  0  0  0  0  0  0  0  0
    4.7261    1.4081   -2.0030 H   0  0  0  0  0  0  0  0  0  0  0  0
    6.9497    1.7733   -1.0952 H   0  0  0  0  0  0  0  0  0  0  0  0
    8.5067    2.3600    0.5940 H   0  0  0  0  0  0  0  0  0  0  0  0
    9.1518    1.1047   -0.5032 H   0  0  0  0  0  0  0  0  0  0  0  0
    9.7719    1.2434    1.1604 H   0  0  0  0  0  0  0  0  0  0  0  0
    8.2981   -3.8501    0.1727 H   0  0  0  0  0  0  0  0  0  0  0  0
    6.2445   -1.2503    1.8503 H   0  0  0  0  0  0  0  0  0  0  0  0
    6.8119   -4.8157   -0.3735 H   0  0  0  0  0  0  0  0  0  0  0  0
    4.0051   -1.6383    0.9022 H   0  0  0  0  0  0  0  0  0  0  0  0
   -0.2969   -1.5345   -1.7444 H   0  0  0  0  0  0  0  0  0  0  0  0
   -1.1193   -1.2001   -0.2057 H   0  0  0  0  0  0  0  0  0  0  0  0
    0.5109   -1.8889   -0.2114 H   0  0  0  0  0  0  0  0  0  0  0  0
   -5.0628    2.6054   -0.2979 H   0  0  0  0  0  0  0  0  0  0  0  0
   -4.2712    2.8038    2.6316 H   0  0  0  0  0  0  0  0  0  0  0  0
   -5.2094    1.4873    1.9146 H   0  0  0  0  0  0  0  0  0  0  0  0
   -5.8694    3.1213    1.9565 H   0  0  0  0  0  0  0  0  0  0  0  0
   -3.2927    4.6407    1.1140 H   0  0  0  0  0  0  0  0  0  0  0  0
   -3.6978    4.6374   -0.6112 H   0  0  0  0  0  0  0  0  0  0  0  0
   -4.9509    4.9070    0.5894 H   0  0  0  0  0  0  0  0  0  0  0  0
   -1.1829    3.1100    2.7202 H   0  0  0  0  0  0  0  0  0  0  0  0
  1  2  2  0  0  0  0
  2  3  1  0  0  0  0
  3  4  1  0  0  0  0
  4  5  4  0  0  0  0
  5  6  4  0  0  0  0
  6  7  1  0  0  0  0
  7  8  1  0  0  0  0
  6  9  4  0  0  0  0
  9 10  1  0  0  0  0
 10 11  1  0  0  0  0
  9 12  4  0  0  0  0
  4 13  4  0  0  0  0
 12 13  4  0  0  0  0
  3 14  1  0  0  0  0
 14 15  1  0  0  0  0
 15 16  1  0  0  0  0
 16 17  4  0  0  0  0
 17 18  1  0  0  0  0
 18 19  1  0  0  0  0
 19 20  1  0  0  0  0
 20 21  4  0  0  0  0
 21 22  4  0  0  0  0
 22 23  4  0  0  0  0
 23 24  1  0  0  0  0
 24 25  1  0  0  0  0
 23 26  4  0  0  0  0
 27 28  2  0  0  0  0
 20 29  4  0  0  0  0
 26 29  4  0  0  0  0
 17 30  1  0  0  0  0
  3 31  1  0  0  0  0
 31 32  1  0  0  0  0
 31 33  1  0  0  0  0
  5 34  1  0  0  0  0
  8 35  1  0  0  0  0
  8 36  1  0  0  0  0
  8 37  1  0  0  0  0
 11 38  1  0  0  0  0
 11 39  1  0  0  0  0
 11 40  1  0  0  0  0
 12 41  1  0  0  0  0
 13 42  1  0  0  0  0
 14 43  1  0  0  0  0
 14 44  1  0  0  0  0
 15 45  1  0  0  0  0
 15 46  1  0  0  0  0
  2 47  1  0  0  0  0
 16 48  1  0  0  0  0
 18 49  1  0  0  0  0
 18 50  1  0  0  0  0
 19 51  1  0  0  0  0
 19 52  1  0  0  0  0
 21 53  1  0  0  0  0
 22 54  1  0  0  0  0
 25 55  1  0  0  0  0
 25 56  1  0  0  0  0
 25 57  1  0  0  0  0
 28 58  1  0  0  0  0
 26 59  1  0  0  0  0
 28 60  1  0  0  0  0
 29 61  1  0  0  0  0
 30 62  1  0  0  0  0
 30 63  1  0  0  0  0
 30 64  1  0  0  0  0
 31 65  1  0  0  0  0
 32 66  1  0  0  0  0
 32 67  1  0  0  0  0
 32 68  1  0  0  0  0
 33 69  1  0  0  0  0
 33 70  1  0  0  0  0
 33 71  1  0  0  0  0
  1 72  1  0  0  0  0
M  CHG  1   1   1
M  END
