 xtb: 6.6.1 (8d0f1dd)
          04062411133D

 72 72  0     0  0            999 V2000
   -1.8063    3.3946    1.0179 N   0  0  0  0  0  0  0  0  0  0  0  0
   -2.8546    2.7921    0.9338 C   0  0  0  0  0  0  0  0  0  0  0  0
   -3.8687    2.3007    0.1071 C   0  0  0  0  0  0  0  0  0  0  0  0
   -4.0006    0.7960    0.1795 C   0  0  0  0  0  0  0  0  0  0  0  0
   -4.9239    0.1408   -0.6350 C   0  0  0  0  0  0  0  0  0  0  0  0
   -5.0737   -1.2341   -0.5880 C   0  0  0  0  0  0  0  0  0  0  0  0
   -5.9399   -1.9490   -1.3354 O   0  0  0  0  0  0  0  0  0  0  0  0
   -6.8026   -1.2745   -2.2212 C   0  0  0  0  0  0  0  0  0  0  0  0
   -4.2751   -1.9946    0.3070 C   0  0  0  0  0  0  0  0  0  0  0  0
   -4.4985   -3.3260    0.2916 O   0  0  0  0  0  0  0  0  0  0  0  0
   -3.8167   -4.1447    1.2112 C   0  0  0  0  0  0  0  0  0  0  0  0
   -3.3539   -1.3363    1.1045 C   0  0  0  0  0  0  0  0  0  0  0  0
   -3.2177    0.0452    1.0397 C   0  0  0  0  0  0  0  0  0  0  0  0
   -3.4929    2.7027   -1.5208 C   0  0  0  0  0  0  0  0  0  0  0  0
   -2.6018    1.8002   -2.1543 C   0  0  0  0  0  0  0  0  0  0  0  0
    0.5125    1.0067    0.2208 C   0  0  0  0  0  0  0  0  0  0  0  0
    1.0804   -0.1903    0.2444 N   0  0  0  0  0  0  0  0  0  0  0  0
    2.4992   -0.3347    0.4452 C   0  0  0  0  0  0  0  0  0  0  0  0
    3.2678   -0.4645   -0.8876 C   0  0  0  0  0  0  0  0  0  0  0  0
    4.7436   -0.3292   -0.6414 C   0  0  0  0  0  0  0  0  0  0  0  0
    5.3770    0.8921   -0.7943 C   0  0  0  0  0  0  0  0  0  0  0  0
    6.7339    1.0250   -0.5403 C   0  0  0  0  0  0  0  0  0  0  0  0
    7.4832   -0.0627   -0.1185 C   0  0  0  0  0  0  0  0  0  0  0  0
    8.8020   -0.0492    0.1574 O   0  0  0  0  0  0  0  0  0  0  0  0
    9.5246    1.1482   -0.0167 C   0  0  0  0  0  0  0  0  0  0  0  0
    6.8401   -1.3199    0.0478 C   0  0  0  0  0  0  0  0  0  0  0  0
    7.6421   -2.3240    0.4602 O   0  0  0  0  0  0  0  0  0  0  0  0
    7.0965   -3.6090    0.6380 C   0  0  0  0  0  0  0  0  0  0  0  0
    5.4846   -1.4297   -0.2147 C   0  0  0  0  0  0  0  0  0  0  0  0
    0.3433   -1.3704   -0.1185 C   0  0  0  0  0  0  0  0  0  0  0  0
   -5.2120    2.9953    0.4788 C   0  0  0  0  0  0  0  0  0  0  0  0
   -5.5956    2.6250    1.9120 C   0  0  0  0  0  0  0  0  0  0  0  0
   -5.1528    4.5124    0.3253 C   0  0  0  0  0  0  0  0  0  0  0  0
   -5.5314    0.7131   -1.3156 H   0  0  0  0  0  0  0  0  0  0  0  0
   -7.4531   -0.5718   -1.6913 H   0  0  0  0  0  0  0  0  0  0  0  0
   -7.4121   -2.0498   -2.6813 H   0  0  0  0  0  0  0  0  0  0  0  0
   -6.2455   -0.7444   -3.0003 H   0  0  0  0  0  0  0  0  0  0  0  0
   -4.0183   -3.8429    2.2436 H   0  0  0  0  0  0  0  0  0  0  0  0
   -4.2015   -5.1495    1.0481 H   0  0  0  0  0  0  0  0  0  0  0  0
   -2.7363   -4.1383    1.0322 H   0  0  0  0  0  0  0  0  0  0  0  0
   -2.7416   -1.8889    1.7991 H   0  0  0  0  0  0  0  0  0  0  0  0
   -2.5041    0.5334    1.6883 H   0  0  0  0  0  0  0  0  0  0  0  0
   -4.4869    2.6953   -1.9599 H   0  0  0  0  0  0  0  0  0  0  0  0
   -3.0964    3.7106   -1.4486 H   0  0  0  0  0  0  0  0  0  0  0  0
   -2.9391    0.8471   -2.5161 H   0  0  0  0  0  0  0  0  0  0  0  0
   -1.5427    1.9743   -2.1431 H   0  0  0  0  0  0  0  0  0  0  0  0
   -0.5263    1.1041   -0.0269 H   0  0  0  0  0  0  0  0  0  0  0  0
    1.0973    1.8747    0.4514 H   0  0  0  0  0  0  0  0  0  0  0  0
    2.6872   -1.2187    1.0598 H   0  0  0  0  0  0  0  0  0  0  0  0
    2.8717    0.5424    0.9781 H   0  0  0  0  0  0  0  0  0  0  0  0
    2.9321    0.3253   -1.5615 H   0  0  0  0  0  0  0  0  0  0  0  0
    3.0509   -1.4302   -1.3457 H   0  0  0  0  0  0  0  0  0  0  0  0
    4.8180    1.7537   -1.1268 H   0  0  0  0  0  0  0  0  0  0  0  0
    7.1997    1.9870   -0.6781 H   0  0  0  0  0  0  0  0  0  0  0  0
    9.1586    1.9373    0.6472 H   0  0  0  0  0  0  0  0  0  0  0  0
    9.4820    1.4934   -1.0539 H   0  0  0  0  0  0  0  0  0  0  0  0
   10.5538    0.9081    0.2420 H   0  0  0  0  0  0  0  0  0  0  0  0
    7.9265   -4.2373    0.9551 H   0  0  0  0  0  0  0  0  0  0  0  0
    6.3238   -3.6126    1.4135 H   0  0  0  0  0  0  0  0  0  0  0  0
    6.6814   -4.0020   -0.2953 H   0  0  0  0  0  0  0  0  0  0  0  0
    4.9885   -2.3810   -0.1022 H   0  0  0  0  0  0  0  0  0  0  0  0
    0.6144   -1.7041   -1.1235 H   0  0  0  0  0  0  0  0  0  0  0  0
   -0.7256   -1.1665   -0.0969 H   0  0  0  0  0  0  0  0  0  0  0  0
    0.5709   -2.1759    0.5815 H   0  0  0  0  0  0  0  0  0  0  0  0
   -5.9816    2.6042   -0.1921 H   0  0  0  0  0  0  0  0  0  0  0  0
   -4.8845    3.0466    2.6203 H   0  0  0  0  0  0  0  0  0  0  0  0
   -5.6179    1.5456    2.0450 H   0  0  0  0  0  0  0  0  0  0  0  0
   -6.5822    3.0184    2.1438 H   0  0  0  0  0  0  0  0  0  0  0  0
   -4.3513    4.9349    0.9278 H   0  0  0  0  0  0  0  0  0  0  0  0
   -5.0017    4.8078   -0.7094 H   0  0  0  0  0  0  0  0  0  0  0  0
   -6.0927    4.9439    0.6610 H   0  0  0  0  0  0  0  0  0  0  0  0
   -1.3208    3.6424    1.8667 H   0  0  0  0  0  0  0  0  0  0  0  0
  1  2  2  0  0  0  0
  2  3  4  0  0  0  0
  3  4  1  0  0  0  0
  4  5  4  0  0  0  0
  5  6  4  0  0  0  0
  6  7  1  0  0  0  0
  7  8  1  0  0  0  0
  6  9  4  0  0  0  0
  9 10  1  0  0  0  0
 10 11  1  0  0  0  0
  9 12  4  0  0  0  0
  4 13  4  0  0  0  0
 12 13  4  0  0  0  0
  3 14  1  0  0  0  0
 14 15  4  0  0  0  0
 16 17  4  0  0  0  0
 17 18  1  0  0  0  0
 18 19  1  0  0  0  0
 19 20  1  0  0  0  0
 20 21  4  0  0  0  0
 21 22  4  0  0  0  0
 22 23  4  0  0  0  0
 23 24  1  0  0  0  0
 24 25  1  0  0  0  0
 23 26  4  0  0  0  0
 26 27  1  0  0  0  0
 27 28  1  0  0  0  0
 20 29  4  0  0  0  0
 26 29  4  0  0  0  0
 17 30  1  0  0  0  0
  3 31  1  0  0  0  0
 31 32  1  0  0  0  0
 31 33  1  0  0  0  0
  5 34  1  0  0  0  0
  8 35  1  0  0  0  0
  8 36  1  0  0  0  0
  8 37  1  0  0  0  0
 11 38  1  0  0  0  0
 11 39  1  0  0  0  0
 11 40  1  0  0  0  0
 12 41  1  0  0  0  0
 13 42  1  0  0  0  0
 14 43  1  0  0  0  0
 14 44  1  0  0  0  0
 15 45  1  0  0  0  0
 15 46  1  0  0  0  0
 16 47  1  0  0  0  0
 16 48  1  0  0  0  0
 18 49  1  0  0  0  0
 18 50  1  0  0  0  0
 19 51  1  0  0  0  0
 19 52  1  0  0  0  0
 21 53  1  0  0  0  0
 22 54  1  0  0  0  0
 25 55  1  0  0  0  0
 25 56  1  0  0  0  0
 25 57  1  0  0  0  0
 28 58  1  0  0  0  0
 28 59  1  0  0  0  0
 28 60  1  0  0  0  0
 29 61  1  0  0  0  0
 30 62  1  0  0  0  0
 30 63  1  0  0  0  0
 30 64  1  0  0  0  0
 31 65  1  0  0  0  0
 32 66  1  0  0  0  0
 32 67  1  0  0  0  0
 32 68  1  0  0  0  0
 33 69  1  0  0  0  0
 33 70  1  0  0  0  0
 33 71  1  0  0  0  0
  1 72  1  0  0  0  0
M  CHG  1   1   1
M  END
