 xtb: 6.6.1 (8d0f1dd)
          04062411133D

 72 72  0     0  0            999 V2000
   -3.3651    3.2098    2.9967 N   0  0  0  0  0  0  0  0  0  0  0  0
   -3.2456    2.0608    2.5115 C   0  0  0  0  0  0  0  0  0  0  0  0
   -3.4485    1.7642    1.0374 C   0  0  0  0  0  0  0  0  0  0  0  0
   -4.0938    0.4083    0.8414 C   0  0  0  0  0  0  0  0  0  0  0  0
   -3.9581   -0.2424   -0.3850 C   0  0  0  0  0  0  0  0  0  0  0  0
   -4.5699   -1.4620   -0.6224 C   0  0  0  0  0  0  0  0  0  0  0  0
   -4.4973   -2.1613   -1.7751 O   0  0  0  0  0  0  0  0  0  0  0  0
   -3.8381   -1.5956   -2.8809 C   0  0  0  0  0  0  0  0  0  0  0  0
   -5.3475   -2.0675    0.4032 C   0  0  0  0  0  0  0  0  0  0  0  0
   -5.8853   -3.2612    0.0905 O   0  0  0  0  0  0  0  0  0  0  0  0
   -6.6919   -3.9220    1.0404 C   0  0  0  0  0  0  0  0  0  0  0  0
   -5.4973   -1.3994    1.6096 C   0  0  0  0  0  0  0  0  0  0  0  0
   -4.8825   -0.1744    1.8221 C   0  0  0  0  0  0  0  0  0  0  0  0
   -1.9966    1.7857    0.6655 C   0  0  0  0  0  0  0  0  0  0  0  0
   -1.1681    0.6964    0.7115 C   0  0  0  0  0  0  0  0  0  0  0  0
    0.2117    0.8087    0.5452 C   0  0  0  0  0  0  0  0  0  0  0  0
    1.0891   -0.1956    0.5880 N   0  0  0  0  0  0  0  0  0  0  0  0
    2.5016    0.0441    0.4271 C   0  0  0  0  0  0  0  0  0  0  0  0
    3.0001   -0.2758   -0.9967 C   0  0  0  0  0  0  0  0  0  0  0  0
    4.4853   -0.0585   -1.0707 C   0  0  0  0  0  0  0  0  0  0  0  0
    5.0050    1.1888   -1.3819 C   0  0  0  0  0  0  0  0  0  0  0  0
    6.3741    1.4030   -1.4072 C   0  0  0  0  0  0  0  0  0  0  0  0
    7.2559    0.3712   -1.1171 C   0  0  0  0  0  0  0  0  0  0  0  0
    8.5971    0.4602   -1.1069 O   0  0  0  0  0  0  0  0  0  0  0  0
    9.2117    1.6936   -1.4027 C   0  0  0  0  0  0  0  0  0  0  0  0
    6.7325   -0.9141   -0.7991 C   0  0  0  0  0  0  0  0  0  0  0  0
    7.6574   -1.8570   -0.5383 O   0  0  0  0  0  0  0  0  0  0  0  0
    7.2447   -3.1676   -0.2340 C   0  0  0  0  0  0  0  0  0  0  0  0
    5.3592   -1.1024   -0.7775 C   0  0  0  0  0  0  0  0  0  0  0  0
    0.6521   -1.5643    0.7176 C   0  0  0  0  0  0  0  0  0  0  0  0
   -4.3066    2.8208    0.2806 C   0  0  0  0  0  0  0  0  0  0  0  0
   -5.6869    2.9422    0.9218 C   0  0  0  0  0  0  0  0  0  0  0  0
   -3.6646    4.2021    0.1851 C   0  0  0  0  0  0  0  0  0  0  0  0
   -3.3675    0.2234   -1.1581 H   0  0  0  0  0  0  0  0  0  0  0  0
   -4.2942   -0.6467   -3.1779 H   0  0  0  0  0  0  0  0  0  0  0  0
   -3.9497   -2.3177   -3.6874 H   0  0  0  0  0  0  0  0  0  0  0  0
   -2.7732   -1.4384   -2.6802 H   0  0  0  0  0  0  0  0  0  0  0  0
   -7.5848   -3.3376    1.2809 H   0  0  0  0  0  0  0  0  0  0  0  0
   -6.9881   -4.8575    0.5699 H   0  0  0  0  0  0  0  0  0  0  0  0
   -6.1361   -4.1365    1.9582 H   0  0  0  0  0  0  0  0  0  0  0  0
   -6.1036   -1.8216    2.3941 H   0  0  0  0  0  0  0  0  0  0  0  0
   -5.0405    0.3293    2.7631 H   0  0  0  0  0  0  0  0  0  0  0  0
   -1.8548    2.0498   -1.9713 H   0  0  0  0  0  0  0  0  0  0  0  0
   -1.5648    2.7615    0.5063 H   0  0  0  0  0  0  0  0  0  0  0  0
   -1.6017   -0.2769    0.8878 H   0  0  0  0  0  0  0  0  0  0  0  0
   -1.8874    2.1827   -2.7411 H   0  0  0  0  0  0  0  0  0  0  0  0
   -2.9042    1.1812    3.0739 H   0  0  0  0  0  0  0  0  0  0  0  0
    0.6325    1.7932    0.3961 H   0  0  0  0  0  0  0  0  0  0  0  0
    3.0482   -0.5751    1.1444 H   0  0  0  0  0  0  0  0  0  0  0  0
    2.7171    1.0905    0.6511 H   0  0  0  0  0  0  0  0  0  0  0  0
    2.4879    0.3761   -1.7060 H   0  0  0  0  0  0  0  0  0  0  0  0
    2.7605   -1.3111   -1.2430 H   0  0  0  0  0  0  0  0  0  0  0  0
    4.3407    2.0061   -1.6174 H   0  0  0  0  0  0  0  0  0  0  0  0
    6.7479    2.3821   -1.6581 H   0  0  0  0  0  0  0  0  0  0  0  0
    8.9178    2.4686   -0.6886 H   0  0  0  0  0  0  0  0  0  0  0  0
    8.9775    2.0242   -2.4188 H   0  0  0  0  0  0  0  0  0  0  0  0
   10.2815    1.5125   -1.3193 H   0  0  0  0  0  0  0  0  0  0  0  0
    8.1609   -3.7316   -0.0710 H   0  0  0  0  0  0  0  0  0  0  0  0
    6.6365   -3.1965    0.6755 H   0  0  0  0  0  0  0  0  0  0  0  0
    6.6871   -3.6150   -1.0628 H   0  0  0  0  0  0  0  0  0  0  0  0
    4.9552   -2.0744   -0.5412 H   0  0  0  0  0  0  0  0  0  0  0  0
    0.0530   -1.8680   -0.1441 H   0  0  0  0  0  0  0  0  0  0  0  0
    0.0496   -1.6906    1.6187 H   0  0  0  0  0  0  0  0  0  0  0  0
    1.5174   -2.2173    0.7887 H   0  0  0  0  0  0  0  0  0  0  0  0
   -4.4359    2.4307   -0.7364 H   0  0  0  0  0  0  0  0  0  0  0  0
   -5.5990    3.3653    1.9185 H   0  0  0  0  0  0  0  0  0  0  0  0
   -6.1783    1.9745    0.9879 H   0  0  0  0  0  0  0  0  0  0  0  0
   -6.3120    3.6004    0.3245 H   0  0  0  0  0  0  0  0  0  0  0  0
   -3.3736    4.5486    1.1721 H   0  0  0  0  0  0  0  0  0  0  0  0
   -2.8018    4.2055   -0.4764 H   0  0  0  0  0  0  0  0  0  0  0  0
   -4.3909    4.9003   -0.2232 H   0  0  0  0  0  0  0  0  0  0  0  0
   -3.1569    3.3311    3.9822 H   0  0  0  0  0  0  0  0  0  0  0  0
  1  2  2  0  0  0  0
  2  3  1  0  0  0  0
  3  4  1  0  0  0  0
  4  5  4  0  0  0  0
  5  6  4  0  0  0  0
  6  7  1  0  0  0  0
  7  8  1  0  0  0  0
  6  9  4  0  0  0  0
  9 10  1  0  0  0  0
 10 11  1  0  0  0  0
  9 12  4  0  0  0  0
  4 13  4  0  0  0  0
 12 13  4  0  0  0  0
  3 14  1  0  0  0  0
 14 15  2  0  0  0  0
 15 16  4  0  0  0  0
 16 17  4  0  0  0  0
 17 18  1  0  0  0  0
 18 19  1  0  0  0  0
 19 20  1  0  0  0  0
 20 21  4  0  0  0  0
 21 22  4  0  0  0  0
 22 23  4  0  0  0  0
 23 24  1  0  0  0  0
 24 25  1  0  0  0  0
 23 26  4  0  0  0  0
 26 27  1  0  0  0  0
 27 28  1  0  0  0  0
 20 29  4  0  0  0  0
 26 29  4  0  0  0  0
 17 30  1  0  0  0  0
  3 31  1  0  0  0  0
 31 32  1  0  0  0  0
 31 33  1  0  0  0  0
  5 34  1  0  0  0  0
  8 35  1  0  0  0  0
  8 36  1  0  0  0  0
  8 37  1  0  0  0  0
 11 38  1  0  0  0  0
 11 39  1  0  0  0  0
 11 40  1  0  0  0  0
 12 41  1  0  0  0  0
 13 42  1  0  0  0  0
 14 44  1  0  0  0  0
 15 45  1  0  0  0  0
 43 46  1  0  0  0  0
  2 47  1  0  0  0  0
 16 48  1  0  0  0  0
 18 49  1  0  0  0  0
 18 50  1  0  0  0  0
 19 51  1  0  0  0  0
 19 52  1  0  0  0  0
 21 53  1  0  0  0  0
 22 54  1  0  0  0  0
 25 55  1  0  0  0  0
 25 56  1  0  0  0  0
 25 57  1  0  0  0  0
 28 58  1  0  0  0  0
 28 59  1  0  0  0  0
 28 60  1  0  0  0  0
 29 61  1  0  0  0  0
 30 62  1  0  0  0  0
 30 63  1  0  0  0  0
 30 64  1  0  0  0  0
 31 65  1  0  0  0  0
 32 66  1  0  0  0  0
 32 67  1  0  0  0  0
 32 68  1  0  0  0  0
 33 69  1  0  0  0  0
 33 70  1  0  0  0  0
 33 71  1  0  0  0  0
  1 72  1  0  0  0  0
M  CHG  1   1   1
M  END
