 xtb: 6.6.1 (8d0f1dd)
          04062411133D

 72 73  0     0  0            999 V2000
   -2.0168    3.0465    2.1395 N   0  0  0  0  0  0  0  0  0  0  0  0
   -2.0502    2.1720    1.2470 C   0  0  0  0  0  0  0  0  0  0  0  0
   -3.2173    1.9673    0.3179 C   0  0  0  0  0  0  0  0  0  0  0  0
   -3.6461    0.5108    0.3610 C   0  0  0  0  0  0  0  0  0  0  0  0
   -4.4576   -0.0164   -0.6427 C   0  0  0  0  0  0  0  0  0  0  0  0
   -4.8995   -1.3301   -0.6024 C   0  0  0  0  0  0  0  0  0  0  0  0
   -5.6819   -1.9174   -1.5262 O   0  0  0  0  0  0  0  0  0  0  0  0
   -6.1405   -1.1685   -2.6273 C   0  0  0  0  0  0  0  0  0  0  0  0
   -4.5211   -2.1639    0.4879 C   0  0  0  0  0  0  0  0  0  0  0  0
   -4.9891   -3.4228    0.4420 O   0  0  0  0  0  0  0  0  0  0  0  0
   -4.6879   -4.3102    1.4941 C   0  0  0  0  0  0  0  0  0  0  0  0
   -3.7270   -1.6265    1.4913 C   0  0  0  0  0  0  0  0  0  0  0  0
   -3.3012   -0.3090    1.4289 C   0  0  0  0  0  0  0  0  0  0  0  0
   -2.7019    2.3502   -1.0944 C   0  0  0  0  0  0  0  0  0  0  0  0
   -1.6605    1.3939   -1.6850 C   0  0  0  0  0  0  0  0  0  0  0  0
   -0.2774    1.6323   -1.1868 C   0  0  0  0  0  0  0  0  0  0  0  0
    0.5149    0.6878   -0.9491 N   0  0  0  0  0  0  0  0  0  0  0  0
    1.8682    0.9105   -0.5501 C   0  0  0  0  0  0  0  0  0  0  0  0
    2.8113    0.4180   -1.6648 C   0  0  0  0  0  0  0  0  0  0  0  0
    4.2089    0.2504   -1.1511 C   0  0  0  0  0  0  0  0  0  0  0  0
    5.1667    1.2275   -1.3925 C   0  0  0  0  0  0  0  0  0  0  0  0
    6.4558    1.1027   -0.9028 C   0  0  0  0  0  0  0  0  0  0  0  0
    6.8193   -0.0069   -0.1560 C   0  0  0  0  0  0  0  0  0  0  0  0
    8.0311   -0.2419    0.3724 O   0  0  0  0  0  0  0  0  0  0  0  0
    9.0621    0.7008    0.1807 C   0  0  0  0  0  0  0  0  0  0  0  0
    5.8495   -1.0290    0.1014 C   0  0  0  0  0  0  0  0  0  0  0  0
    6.3349   -2.0544    0.8221 O   0  0  0  0  0  0  0  0  0  0  0  0
    5.5171   -3.1495    1.1559 C   0  0  0  0  0  0  0  0  0  0  0  0
    4.5723   -0.8604   -0.3985 C   0  0  0  0  0  0  0  0  0  0  0  0
    2.5570   -2.5862   -0.1450 C   0  0  0  0  0  0  0  0  0  0  0  0
   -4.4618    2.8354    0.6763 C   0  0  0  0  0  0  0  0  0  0  0  0
   -4.9902    2.5088    2.0710 C   0  0  0  0  0  0  0  0  0  0  0  0
   -4.2110    4.3368    0.5663 C   0  0  0  0  0  0  0  0  0  0  0  0
   -4.7560    0.6092   -1.4673 H   0  0  0  0  0  0  0  0  0  0  0  0
   -6.7492   -0.3175   -2.3073 H   0  0  0  0  0  0  0  0  0  0  0  0
   -6.7560   -1.8523   -3.2086 H   0  0  0  0  0  0  0  0  0  0  0  0
   -5.3099   -0.8147   -3.2459 H   0  0  0  0  0  0  0  0  0  0  0  0
   -5.0810   -3.9477    2.4484 H   0  0  0  0  0  0  0  0  0  0  0  0
   -5.1770   -5.2471    1.2349 H   0  0  0  0  0  0  0  0  0  0  0  0
   -3.6098   -4.4754    1.5819 H   0  0  0  0  0  0  0  0  0  0  0  0
   -3.4396   -2.2286    2.3377 H   0  0  0  0  0  0  0  0  0  0  0  0
   -2.7073    0.0811    2.2406 H   0  0  0  0  0  0  0  0  0  0  0  0
   -3.5577    2.4009   -1.7676 H   0  0  0  0  0  0  0  0  0  0  0  0
   -2.2698    3.3509   -1.0442 H   0  0  0  0  0  0  0  0  0  0  0  0
   -1.9319    0.3510   -1.5206 H   0  0  0  0  0  0  0  0  0  0  0  0
   -1.6260    1.5625   -2.7666 H   0  0  0  0  0  0  0  0  0  0  0  0
   -1.2122    1.4962    1.0245 H   0  0  0  0  0  0  0  0  0  0  0  0
    0.0187    2.6875   -1.0796 H   0  0  0  0  0  0  0  0  0  0  0  0
    2.0434    0.3221    0.3556 H   0  0  0  0  0  0  0  0  0  0  0  0
    2.0761    1.9695   -0.3277 H   0  0  0  0  0  0  0  0  0  0  0  0
    2.7957    1.1392   -2.4830 H   0  0  0  0  0  0  0  0  0  0  0  0
    2.4304   -0.5302   -2.0454 H   0  0  0  0  0  0  0  0  0  0  0  0
    4.9035    2.0956   -1.9765 H   0  0  0  0  0  0  0  0  0  0  0  0
    7.1751    1.8775   -1.1121 H   0  0  0  0  0  0  0  0  0  0  0  0
    8.7988    1.6723    0.6087 H   0  0  0  0  0  0  0  0  0  0  0  0
    9.3017    0.8199   -0.8797 H   0  0  0  0  0  0  0  0  0  0  0  0
    9.9265    0.2972    0.7040 H   0  0  0  0  0  0  0  0  0  0  0  0
    6.1662   -3.8418    1.6892 H   0  0  0  0  0  0  0  0  0  0  0  0
    4.6979   -2.8464    1.8129 H   0  0  0  0  0  0  0  0  0  0  0  0
    5.1189   -3.6403    0.2649 H   0  0  0  0  0  0  0  0  0  0  0  0
    3.7015   -1.6797   -0.2338 H   0  0  0  0  0  0  0  0  0  0  0  0
    2.8259   -3.3781   -0.8236 H   0  0  0  0  0  0  0  0  0  0  0  0
    1.7158   -1.9957   -0.4589 H   0  0  0  0  0  0  0  0  0  0  0  0
    2.5334   -2.8753    0.8920 H   0  0  0  0  0  0  0  0  0  0  0  0
   -5.2392    2.5651   -0.0488 H   0  0  0  0  0  0  0  0  0  0  0  0
   -4.2613    2.7978    2.8224 H   0  0  0  0  0  0  0  0  0  0  0  0
   -5.2052    1.4479    2.1745 H   0  0  0  0  0  0  0  0  0  0  0  0
   -5.9079    3.0622    2.2525 H   0  0  0  0  0  0  0  0  0  0  0  0
   -3.3901    4.6270    1.2151 H   0  0  0  0  0  0  0  0  0  0  0  0
   -3.9907    4.6404   -0.4533 H   0  0  0  0  0  0  0  0  0  0  0  0
   -5.1026    4.8707    0.8851 H   0  0  0  0  0  0  0  0  0  0  0  0
   -1.1725    3.1327    2.6960 H   0  0  0  0  0  0  0  0  0  0  0  0
  1  2  2  0  0  0  0
  2  3  1  0  0  0  0
  3  4  1  0  0  0  0
  4  5  4  0  0  0  0
  5  6  4  0  0  0  0
  6  7  1  0  0  0  0
  7  8  1  0  0  0  0
  6  9  4  0  0  0  0
  9 10  1  0  0  0  0
 10 11  1  0  0  0  0
  9 12  4  0  0  0  0
  4 13  4  0  0  0  0
 12 13  4  0  0  0  0
  3 14  1  0  0  0  0
 14 15  1  0  0  0  0
 15 16  1  0  0  0  0
 16 17  2  0  0  0  0
 17 18  1  0  0  0  0
 18 19  1  0  0  0  0
 19 20  1  0  0  0  0
 20 21  4  0  0  0  0
 21 22  4  0  0  0  0
 22 23  4  0  0  0  0
 23 24  1  0  0  0  0
 24 25  1  0  0  0  0
 23 26  1  0  0  0  0
 26 27  1  0  0  0  0
 27 28  1  0  0  0  0
 20 29  4  0  0  0  0
 26 29  4  0  0  0  0
  3 31  1  0  0  0  0
 31 32  1  0  0  0  0
 31 33  1  0  0  0  0
  5 34  1  0  0  0  0
  8 35  1  0  0  0  0
  8 36  1  0  0  0  0
  8 37  1  0  0  0  0
 11 38  1  0  0  0  0
 11 39  1  0  0  0  0
 11 40  1  0  0  0  0
 12 41  1  0  0  0  0
 13 42  1  0  0  0  0
 14 43  1  0  0  0  0
 14 44  1  0  0  0  0
 15 45  1  0  0  0  0
 15 46  1  0  0  0  0
  2 47  1  0  0  0  0
 16 48  1  0  0  0  0
 18 49  1  0  0  0  0
 18 50  1  0  0  0  0
 19 51  1  0  0  0  0
 19 52  1  0  0  0  0
 21 53  1  0  0  0  0
 22 54  1  0  0  0  0
 25 55  1  0  0  0  0
 25 56  1  0  0  0  0
 25 57  1  0  0  0  0
 28 58  1  0  0  0  0
 28 59  1  0  0  0  0
 28 60  1  0  0  0  0
 29 61  1  0  0  0  0
 30 61  1  0  0  0  0
 30 62  1  0  0  0  0
 30 63  1  0  0  0  0
 30 64  1  0  0  0  0
 31 65  1  0  0  0  0
 32 66  1  0  0  0  0
 32 67  1  0  0  0  0
 32 68  1  0  0  0  0
 33 69  1  0  0  0  0
 33 70  1  0  0  0  0
 33 71  1  0  0  0  0
  1 72  1  0  0  0  0
M  CHG  1   1   1
M  END
