 xtb: 6.6.1 (8d0f1dd)
          06052420003D

 25 25  0     0  0            999 V2000
    3.1614    1.3942    0.0118 C   0  0  0  0  0  0  0  0  0  0  0  0
    2.3506    0.2594    0.0309 N   0  0  0  0  0  0  0  0  0  0  0  0
    2.5558   -2.3168    0.2562 C   0  0  0  0  0  0  0  0  0  0  0  0
    1.2737   -2.2332    0.1966 N   0  0  0  0  0  0  0  0  0  0  0  0
    0.4605   -1.1118    0.0679 C   0  0  0  0  0  0  0  0  0  0  0  0
    1.0631    0.1621    0.0319 C   0  0  0  0  0  0  0  0  0  0  0  0
    0.1446    1.3549   -0.0044 C   0  0  0  0  0  0  0  0  0  0  0  0
    0.5645    2.4876    0.0271 O   0  0  0  0  0  0  0  0  0  0  0  0
   -1.1905    1.0616   -0.0753 N   0  0  0  0  0  0  0  0  0  0  0  0
   -2.1420    2.1666   -0.1198 C   0  0  0  0  0  0  0  0  0  0  0  0
   -1.7632   -0.1962   -0.1087 C   0  0  0  0  0  0  0  0  0  0  0  0
   -2.9483   -0.3589   -0.2029 O   0  0  0  0  0  0  0  0  0  0  0  0
   -0.8817   -1.2840   -0.0175 N   0  0  0  0  0  0  0  0  0  0  0  0
   -1.4838   -2.6053   -0.0377 C   0  0  0  0  0  0  0  0  0  0  0  0
    3.9240    1.2797   -0.7644 H   0  0  0  0  0  0  0  0  0  0  0  0
    2.5749    2.3027   -0.1667 H   0  0  0  0  0  0  0  0  0  0  0  0
    3.6801    1.4944    0.9712 H   0  0  0  0  0  0  0  0  0  0  0  0
    3.2000   -1.4415    0.2085 H   0  0  0  0  0  0  0  0  0  0  0  0
   -1.5891    3.1022   -0.1318 H   0  0  0  0  0  0  0  0  0  0  0  0
   -2.7602    2.0771   -1.0126 H   0  0  0  0  0  0  0  0  0  0  0  0
   -2.7921    2.1239    0.7541 H   0  0  0  0  0  0  0  0  0  0  0  0
   -1.3350   -3.1222    0.9125 H   0  0  0  0  0  0  0  0  0  0  0  0
   -1.1010   -3.1980   -0.8701 H   0  0  0  0  0  0  0  0  0  0  0  0
   -2.5566   -2.4647   -0.1818 H   0  0  0  0  0  0  0  0  0  0  0  0
    0.7506   -3.1156    0.2561 H   0  0  0  0  0  0  0  0  0  0  0  0
  1  2  1  0  0  0  0
  3  4  2  0  0  0  0
  4  5  1  0  0  0  0
  2  6  2  0  0  0  0
  5  6  4  0  0  0  0
  6  7  1  0  0  0  0
  7  8  2  0  0  0  0
  7  9  1  0  0  0  0
  9 10  1  0  0  0  0
  9 11  1  0  0  0  0
 11 12  2  0  0  0  0
  5 13  4  0  0  0  0
 11 13  1  0  0  0  0
 13 14  1  0  0  0  0
  1 15  1  0  0  0  0
  1 16  1  0  0  0  0
  1 17  1  0  0  0  0
  3 18  1  0  0  0  0
 10 19  1  0  0  0  0
 10 20  1  0  0  0  0
 10 21  1  0  0  0  0
 14 22  1  0  0  0  0
 14 23  1  0  0  0  0
 14 24  1  0  0  0  0
  4 25  1  0  0  0  0
M  CHG  1   1   1
M  END
