          21
 
C              3.31595297        1.03602918        0.05947345
N              2.38425466       -0.05760356       -0.01542496
C              2.67198181       -1.34387637       -0.14273838
N              1.53322359       -2.06967675       -0.14629657
C              0.47811149       -1.20670914       -0.01326685
C              1.02583492        0.06870826        0.07096366
C              0.14370812        1.25277936        0.15655382
O              0.57506717        2.38822126        0.16110432
N             -1.14799806        0.90535419        0.20349559
C             -1.71967873       -0.28893126        0.15849720
O             -2.90149096       -0.50343246        0.20508490
N             -0.82941349       -1.45486319        0.02531850
C             -1.39989734       -2.77821326       -0.03544838
H              3.83123842        1.02656585        1.02129858
H              4.05487273        0.96152667       -0.73742413
H              2.76056932        1.97063588       -0.03176872
H              3.65923566       -1.75268678       -0.23346939
H             -1.05370389       -3.38879850        0.80101777
H             -1.15365836       -3.26540115       -0.98131058
H             -2.48238062       -2.66086583        0.03326294
H              1.48859765       -3.07352969       -0.24398277
