          18
 
C              4.20379045        0.65542121       -0.05355461
N              3.10631770       -0.26823046       -0.03858699
C              3.16251275       -1.58424296       -0.10065421
N              1.93657452       -2.11766497       -0.05571362
C              0.95806705       -1.10298799        0.04376449
C              1.75843084        0.12559449        0.05376927
C              1.31393497        1.37341529        0.12810586
O              0.85388259        2.43245463        0.19268011
N             -0.29311599       -1.19095228        0.10720084
C             -1.04124860       -2.40561028        0.09520212
H              4.24157003        1.21302573        0.88449986
H              5.13744449        0.11226692       -0.18205162
H              4.08611991        1.36654528       -0.87292126
H              4.07283710       -2.15024552       -0.17459956
H             -0.85277949       -2.99318505        0.99844400
H             -0.81276275       -3.02172600       -0.77938689
H             -2.09757038       -2.13946905        0.07084518
H              1.73261324       -3.10447646       -0.09148782
