 xtb: 6.6.1 (8d0f1dd)
          06052419573D

 25 25  0     0  0            999 V2000
    2.9389    0.3589   -0.5380 C   0  0  0  0  0  0  0  0  0  0  0  0
    1.7941    0.0175   -0.1667 N   0  0  0  0  0  0  0  0  0  0  0  0
    4.1017    0.4613    0.3501 C   0  0  0  0  0  0  0  0  0  0  0  0
    0.7311   -2.5695   -0.3136 N   0  0  0  0  0  0  0  0  0  0  0  0
   -0.5292   -0.7367   -0.0450 C   0  0  0  0  0  0  0  0  0  0  0  0
    0.5390    0.1663   -0.0956 C   0  0  0  0  0  0  0  0  0  0  0  0
   -0.0548    1.5770    0.0439 C   0  0  0  0  0  0  0  0  0  0  0  0
    0.5748    2.5927    0.0398 O   0  0  0  0  0  0  0  0  0  0  0  0
   -1.3973    1.3887    0.1316 N   0  0  0  0  0  0  0  0  0  0  0  0
   -2.3547    2.4667    0.2474 C   0  0  0  0  0  0  0  0  0  0  0  0
   -1.7800    0.0476    0.0769 C   0  0  0  0  0  0  0  0  0  0  0  0
   -2.9198   -0.3290    0.1067 O   0  0  0  0  0  0  0  0  0  0  0  0
   -0.4123   -2.0810   -0.1620 N   0  0  0  0  0  0  0  0  0  0  0  0
   -1.6047   -2.9022   -0.0854 C   0  0  0  0  0  0  0  0  0  0  0  0
    4.0898    1.4594    0.7989 H   0  0  0  0  0  0  0  0  0  0  0  0
    5.0338    0.3636   -0.2085 H   0  0  0  0  0  0  0  0  0  0  0  0
    3.0959    0.5440   -1.6028 H   0  0  0  0  0  0  0  0  0  0  0  0
    4.0699   -0.2576    1.1696 H   0  0  0  0  0  0  0  0  0  0  0  0
   -1.8096    3.4077    0.2372 H   0  0  0  0  0  0  0  0  0  0  0  0
   -3.0538    2.4281   -0.5878 H   0  0  0  0  0  0  0  0  0  0  0  0
   -2.9132    2.3663    1.1777 H   0  0  0  0  0  0  0  0  0  0  0  0
   -1.6841   -3.3255    0.9186 H   0  0  0  0  0  0  0  0  0  0  0  0
   -1.5303   -3.7230   -0.7994 H   0  0  0  0  0  0  0  0  0  0  0  0
   -2.5012   -2.3162   -0.2794 H   0  0  0  0  0  0  0  0  0  0  0  0
    0.7363   -3.5868   -0.3829 H   0  0  0  0  0  0  0  0  0  0  0  0
  1  2  2  0  0  0  0
  1  3  1  0  0  0  0
  2  6  2  0  0  0  0
  5  6  4  0  0  0  0
  6  7  1  0  0  0  0
  7  8  2  0  0  0  0
  7  9  1  0  0  0  0
  9 10  1  0  0  0  0
  5 11  1  0  0  0  0
  9 11  1  0  0  0  0
 11 12  2  0  0  0  0
  4 13  2  0  0  0  0
  5 13  4  0  0  0  0
 13 14  1  0  0  0  0
  3 15  1  0  0  0  0
  3 16  1  0  0  0  0
  1 17  1  0  0  0  0
  3 18  1  0  0  0  0
 10 19  1  0  0  0  0
 10 20  1  0  0  0  0
 10 21  1  0  0  0  0
 14 22  1  0  0  0  0
 14 23  1  0  0  0  0
 14 24  1  0  0  0  0
  4 25  1  0  0  0  0
M  CHG  1   1   1
M  END
