           5
 
O             -1.22108046       -1.52683707        0.65817059
C             -1.45806007       -2.58551585        1.45206296
H             -2.39563372       -3.10100272        1.17561404
H             -0.63958021       -3.32619507        1.38667467
H             -1.54459207       -2.29382313        2.51423192
