 xtb: 6.6.1 (8d0f1dd)
          06052420003D

 25 25  0     0  0            999 V2000
    3.2935    1.0908    0.0070 C   0  0  0  0  0  0  0  0  0  0  0  0
    2.3346    0.0190   -0.0101 N   0  0  0  0  0  0  0  0  0  0  0  0
    2.5950   -1.2841   -0.0656 C   0  0  0  0  0  0  0  0  0  0  0  0
    1.4372   -1.9851   -0.0382 N   0  0  0  0  0  0  0  0  0  0  0  0
    0.4072   -1.0961    0.0389 C   0  0  0  0  0  0  0  0  0  0  0  0
    0.9661    0.1755    0.0573 C   0  0  0  0  0  0  0  0  0  0  0  0
    0.1711    1.3652    0.1132 C   0  0  0  0  0  0  0  0  0  0  0  0
    0.5519    2.5143    0.0947 O   0  0  0  0  0  0  0  0  0  0  0  0
   -1.2300    1.0509    0.1969 N   0  0  0  0  0  0  0  0  0  0  0  0
   -2.0873    2.0804    0.2709 C   0  0  0  0  0  0  0  0  0  0  0  0
   -1.8016   -0.2537    0.1922 C   0  0  0  0  0  0  0  0  0  0  0  0
   -2.9880   -0.4143    0.2695 O   0  0  0  0  0  0  0  0  0  0  0  0
   -0.9200   -1.3277    0.0898 N   0  0  0  0  0  0  0  0  0  0  0  0
   -1.4600   -2.6751    0.0496 C   0  0  0  0  0  0  0  0  0  0  0  0
    3.7956    1.1343    0.9750 H   0  0  0  0  0  0  0  0  0  0  0  0
    4.0412    0.9414   -0.7705 H   0  0  0  0  0  0  0  0  0  0  0  0
    2.7707    2.0320   -0.1578 H   0  0  0  0  0  0  0  0  0  0  0  0
    3.5718   -1.7208   -0.1245 H   0  0  0  0  0  0  0  0  0  0  0  0
   -1.6745    3.0714    0.2630 H   0  0  0  0  0  0  0  0  0  0  0  0
   -4.0081    3.2351   -1.8018 H   0  0  0  0  0  0  0  0  0  0  0  0
   -3.1387    1.8758    0.3345 H   0  0  0  0  0  0  0  0  0  0  0  0
   -1.1261   -3.2467    0.9159 H   0  0  0  0  0  0  0  0  0  0  0  0
   -1.1606   -3.1752   -0.8715 H   0  0  0  0  0  0  0  0  0  0  0  0
   -2.5459   -2.5973    0.0751 H   0  0  0  0  0  0  0  0  0  0  0  0
    1.3652   -2.9917   -0.0722 H   0  0  0  0  0  0  0  0  0  0  0  0
  1  2  1  0  0  0  0
  2  3  4  0  0  0  0
  3  4  4  0  0  0  0
  4  5  1  0  0  0  0
  2  6  1  0  0  0  0
  5  6  4  0  0  0  0
  6  7  1  0  0  0  0
  7  8  2  0  0  0  0
  7  9  1  0  0  0  0
  9 10  4  0  0  0  0
  9 11  1  0  0  0  0
 11 12  2  0  0  0  0
  5 13  1  0  0  0  0
 11 13  1  0  0  0  0
 13 14  1  0  0  0  0
  1 15  1  0  0  0  0
  1 16  1  0  0  0  0
  1 17  1  0  0  0  0
  3 18  1  0  0  0  0
 10 19  1  0  0  0  0
 10 21  1  0  0  0  0
 14 22  1  0  0  0  0
 14 23  1  0  0  0  0
 14 24  1  0  0  0  0
  4 25  1  0  0  0  0
M  CHG  1   1   1
M  END
